<?xml version="1.0" encoding="UTF-8"?>

<!-- generated on 日  8/16 23:43:25 2020 by Eclipse SUMO netedit Version 1.3.1
<configuration xmlns:xsi="http://www.w3.org/2001/XMLSchema-instance" xsi:noNamespaceSchemaLocation="http://sumo.dlr.de/xsd/netconvertConfiguration.xsd">

    <input>
        <sumo-net-file value="/Users/meng1369/Desktop/sumo/hello4/bicycle.net.xml"/>
    </input>

    <output>
        <output-file value="/Users/meng1369/Desktop/sumo/hello4/bicycle.net.xml"/>
    </output>

    <processing>
        <geometry.max-grade.fix value="false"/>
        <offset.disable-normalization value="true"/>
        <opposites.guess.fix-lengths value="true"/>
        <lefthand value="false"/>
    </processing>

    <junctions>
        <no-internal-links value="false"/>
        <no-turnarounds value="true"/>
        <junctions.corner-detail value="5"/>
        <junctions.limit-turn-speed value="5.5"/>
        <rectangular-lane-cut value="false"/>
    </junctions>

    <pedestrian>
        <walkingareas value="false"/>
    </pedestrian>

    <netedit>
        <additional-files value="/Users/meng1369/Desktop/sumo/hello4/hello.add.xml"/>
    </netedit>

</configuration>
-->

<net version="1.3" junctionCornerDetail="5" limitTurnSpeed="5.50" xmlns:xsi="http://www.w3.org/2001/XMLSchema-instance" xsi:noNamespaceSchemaLocation="http://sumo.dlr.de/xsd/net_file.xsd">

    <location netOffset="0.00,0.00" convBoundary="-51.57,-20.62,117.96,128.74" origBoundary="-10000000000.00,-10000000000.00,10000000000.00,10000000000.00" projParameter="!"/>

    <edge id=":node1_w0" function="walkingarea">
        <lane id=":node1_w0_0" index="0" allow="pedestrian" speed="1.00" length="25.20" width="2.00" shape="49.49,-16.12 51.49,-16.04 24.31,-17.14 26.31,-17.06"/>
    </edge>
    <edge id=":node2_0" function="internal">
        <lane id=":node2_0_0" index="0" allow="bicycle" speed="12.43" length="38.53" width="2.00" shape="-38.32,70.59 -47.59,69.00 -53.91,63.97 -57.30,55.50 -57.75,43.59"/>
    </edge>
    <edge id=":node2_1" function="internal">
        <lane id=":node2_1_0" index="0" disallow="pedestrian" speed="11.78" length="34.08" shape="-38.36,67.99 -46.39,66.56 -51.87,62.05 -54.79,54.46 -55.16,43.78"/>
    </edge>
    <edge id=":node2_2" function="internal">
        <lane id=":node2_2_0" index="0" disallow="pedestrian" speed="10.82" length="28.62" shape="-38.39,64.79 -44.92,63.56 -49.36,59.69 -51.71,53.18 -51.96,44.02"/>
    </edge>
    <edge id=":node2_3" function="internal">
        <lane id=":node2_3_0" index="0" allow="bicycle" speed="5.69" length="7.51" width="2.00" shape="-42.99,44.69 -42.85,46.77 -42.06,48.25 -40.64,49.12 -38.57,49.40"/>
    </edge>
    <edge id=":node2_4" function="internal">
        <lane id=":node2_4_0" index="0" allow="bus" speed="7.18" length="11.97" shape="-45.58,44.50 -45.36,47.81 -44.11,50.17 -41.84,51.56 -38.54,52.00"/>
    </edge>
    <edge id=":node2_5" function="internal">
        <lane id=":node2_5_0" index="0" disallow="pedestrian" speed="8.56" length="17.46" shape="-48.77,44.26 -48.44,49.09 -46.62,52.53 -43.31,54.56 -38.51,55.20"/>
    </edge>
    <edge id=":node2_6" function="internal">
        <lane id=":node2_6_0" index="0" disallow="pedestrian" speed="9.18" length="20.27" shape="-48.77,44.26 -48.53,50.49 -46.73,54.93 -43.38,57.56 -38.47,58.40"/>
    </edge>
    <edge id=":node2_c0" function="crossing" crossingEdges="2to8 3to2">
        <lane id=":node2_c0_0" index="0" allow="pedestrian" speed="1.00" length="32.05" width="4.00" shape="-58.89,45.51 -40.31,71.62"/>
    </edge>
    <edge id=":node2_w0" function="walkingarea">
        <lane id=":node2_w0_0" index="0" allow="pedestrian" speed="1.00" length="23.50" width="4.00" shape="-57.27,44.35 -58.75,43.51 -60.74,43.36 -38.29,73.59 -38.31,71.59 -38.68,70.46 -45.15,70.89 -50.61,68.59 -54.70,64.71 -57.42,59.23 -58.77,52.17"/>
    </edge>
    <edge id=":node2_w1" function="walkingarea">
        <lane id=":node2_w1_0" index="0" allow="pedestrian" speed="1.00" length="3.50" width="2.00" shape="-38.59,48.40 -38.61,46.40 -40.00,44.92 -41.99,44.77 -41.97,45.89 -41.74,46.80 -41.28,47.51 -40.60,48.01 -39.70,48.31"/>
    </edge>
    <edge id=":node3_0" function="internal">
        <lane id=":node3_0_0" index="0" allow="bicycle" speed="6.15" length="3.93" width="2.00" shape="50.16,69.94 47.96,70.24 46.49,71.11"/>
    </edge>
    <edge id=":node3_1" function="internal">
        <lane id=":node3_1_0" index="0" allow="bicycle" speed="30.00" length="30.84" width="2.00" shape="50.16,69.94 19.31,69.91"/>
    </edge>
    <edge id=":node3_2" function="internal">
        <lane id=":node3_2_0" index="0" allow="bicycle" speed="12.70" length="19.95" width="2.00" shape="50.16,69.94 42.41,66.97 34.05,59.88 33.63,59.33"/>
    </edge>
    <edge id=":node3_3" function="internal">
        <lane id=":node3_3_0" index="0" allow="bus" speed="7.56" length="3.67" shape="50.19,67.34 46.87,67.78 46.60,67.94"/>
    </edge>
    <edge id=":node3_4" function="internal">
        <lane id=":node3_4_0" index="0" disallow="pedestrian" speed="11.81" length="15.21" shape="50.19,67.34 43.36,64.81 37.64,59.33"/>
    </edge>
    <edge id=":node3_5" function="internal">
        <lane id=":node3_5_0" index="0" allow="bus" speed="30.00" length="30.95" shape="50.19,67.34 19.28,67.31"/>
        <lane id=":node3_5_1" index="1" disallow="pedestrian" speed="30.00" length="30.95" shape="50.24,64.14 19.25,64.11"/>
    </edge>
    <edge id=":node3_7" function="internal">
        <lane id=":node3_7_0" index="0" disallow="pedestrian" speed="8.88" length="6.69" shape="50.24,64.14 45.52,64.76 43.86,65.74"/>
    </edge>
    <edge id=":node3_8" function="internal">
        <lane id=":node3_8_0" index="0" disallow="pedestrian" speed="30.00" length="31.07" shape="50.28,60.94 19.21,60.91"/>
    </edge>
    <edge id=":node3_9" function="internal">
        <lane id=":node3_9_0" index="0" disallow="pedestrian" speed="10.83" length="8.35" shape="50.28,60.94 42.84,59.77 42.15,59.34"/>
    </edge>
    <edge id=":node3_40" function="internal">
        <lane id=":node3_40_0" index="0" allow="bicycle" speed="6.15" length="4.34" width="2.00" shape="46.49,71.11 46.36,71.19 45.38,72.80 45.00,75.07"/>
    </edge>
    <edge id=":node3_41" function="internal">
        <lane id=":node3_41_0" index="0" allow="bicycle" speed="12.70" length="18.57" width="2.00" shape="33.63,59.33 27.42,51.15 24.87,43.25"/>
    </edge>
    <edge id=":node3_42" function="internal">
        <lane id=":node3_42_0" index="0" allow="bus" speed="7.56" length="8.75" shape="46.60,67.94 44.46,69.20 42.97,71.61 42.40,75.00"/>
    </edge>
    <edge id=":node3_43" function="internal">
        <lane id=":node3_43_0" index="0" disallow="pedestrian" speed="11.81" length="17.60" shape="37.64,59.33 36.98,58.70 32.32,50.94 30.67,43.48"/>
    </edge>
    <edge id=":node3_44" function="internal">
        <lane id=":node3_44_0" index="0" disallow="pedestrian" speed="8.88" length="10.84" shape="43.86,65.74 42.11,66.76 40.01,70.14 39.20,74.91"/>
    </edge>
    <edge id=":node3_45" function="internal">
        <lane id=":node3_45_0" index="0" disallow="pedestrian" speed="10.83" length="19.04" shape="42.15,59.34 37.62,56.49 34.63,51.11 33.87,43.61"/>
    </edge>
    <edge id=":node3_10" function="internal">
        <lane id=":node3_10_0" index="0" allow="bicycle" speed="5.74" length="2.47" width="2.00" shape="46.06,44.10 46.26,46.11 46.48,46.51"/>
    </edge>
    <edge id=":node3_11" function="internal">
        <lane id=":node3_11_0" index="0" allow="bicycle" speed="40.00" length="30.98" width="2.00" shape="46.06,44.10 45.00,75.07"/>
    </edge>
    <edge id=":node3_12" function="internal">
        <lane id=":node3_12_0" index="0" allow="bicycle" speed="13.13" length="3.33" width="2.00" shape="46.06,44.10 44.83,47.20"/>
    </edge>
    <edge id=":node3_13" function="internal">
        <lane id=":node3_13_0" index="0" allow="bus" speed="7.23" length="3.52" shape="43.46,44.00 43.78,47.18 43.94,47.46"/>
    </edge>
    <edge id=":node3_14" function="internal">
        <lane id=":node3_14_0" index="0" disallow="pedestrian" speed="12.23" length="3.82" shape="43.46,44.00 42.04,47.54"/>
    </edge>
    <edge id=":node3_15" function="internal">
        <lane id=":node3_15_0" index="0" allow="bus" speed="40.00" length="31.04" shape="43.46,44.00 42.40,75.00"/>
        <lane id=":node3_15_1" index="1" disallow="pedestrian" speed="40.00" length="31.04" shape="40.26,43.87 39.20,74.91"/>
    </edge>
    <edge id=":node3_17" function="internal">
        <lane id=":node3_17_0" index="0" disallow="pedestrian" speed="8.59" length="6.52" shape="40.26,43.87 40.73,48.49 41.65,50.13"/>
    </edge>
    <edge id=":node3_18" function="internal">
        <lane id=":node3_18_0" index="0" disallow="pedestrian" speed="40.00" length="31.10" shape="37.06,43.74 36.00,74.82"/>
    </edge>
    <edge id=":node3_19" function="internal">
        <lane id=":node3_19_0" index="0" disallow="pedestrian" speed="11.25" length="6.07" shape="37.06,43.74 35.96,49.71"/>
    </edge>
    <edge id=":node3_46" function="internal">
        <lane id=":node3_46_0" index="0" allow="bicycle" speed="5.74" length="4.86" width="2.00" shape="46.48,46.51 47.06,47.55 48.46,48.43 50.45,48.74"/>
    </edge>
    <edge id=":node3_47" function="internal">
        <lane id=":node3_47_0" index="0" allow="bicycle" speed="13.13" length="35.44" width="2.00" shape="44.83,47.20 42.98,51.87 35.88,60.30 27.19,67.09 19.31,69.91"/>
    </edge>
    <edge id=":node3_48" function="internal">
        <lane id=":node3_48_0" index="0" allow="bus" speed="7.23" length="8.09" shape="43.94,47.46 45.05,49.46 47.26,50.85 50.42,51.34"/>
    </edge>
    <edge id=":node3_49" function="internal">
        <lane id=":node3_49_0" index="0" disallow="pedestrian" speed="12.23" length="29.37" shape="42.04,47.54 40.78,50.67 34.56,57.17 26.73,62.11 19.25,64.11"/>
    </edge>
    <edge id=":node3_50" function="internal">
        <lane id=":node3_50_0" index="0" disallow="pedestrian" speed="8.59" length="10.34" shape="41.65,50.13 42.58,51.80 45.79,53.82 50.37,54.54"/>
    </edge>
    <edge id=":node3_51" function="internal">
        <lane id=":node3_51_0" index="0" disallow="pedestrian" speed="11.25" length="21.87" shape="35.96,49.71 35.69,51.18 32.26,56.52 26.76,59.77 19.21,60.91"/>
    </edge>
    <edge id=":node3_20" function="internal">
        <lane id=":node3_20_0" index="0" allow="bicycle" speed="6.49" length="4.70" width="2.00" shape="19.06,48.72 21.52,48.35 23.31,47.32 23.39,47.19"/>
    </edge>
    <edge id=":node3_21" function="internal">
        <lane id=":node3_21_0" index="0" allow="bicycle" speed="30.00" length="31.39" width="2.00" shape="19.06,48.72 50.45,48.74"/>
    </edge>
    <edge id=":node3_22" function="internal">
        <lane id=":node3_22_0" index="0" allow="bicycle" speed="12.68" length="20.40" width="2.00" shape="19.06,48.72 26.90,51.54 35.46,58.52 36.10,59.33"/>
    </edge>
    <edge id=":node3_23" function="internal">
        <lane id=":node3_23_0" index="0" allow="bus" speed="7.84" length="3.71" shape="19.10,51.32 22.64,50.78 22.75,50.72"/>
    </edge>
    <edge id=":node3_24" function="internal">
        <lane id=":node3_24_0" index="0" disallow="pedestrian" speed="11.79" length="15.62" shape="19.10,51.32 26.02,53.71 32.12,59.33"/>
    </edge>
    <edge id=":node3_25" function="internal">
        <lane id=":node3_25_0" index="0" allow="bus" speed="30.00" length="31.28" shape="19.10,51.32 50.42,51.34"/>
        <lane id=":node3_25_1" index="1" disallow="pedestrian" speed="30.00" length="31.28" shape="19.13,54.52 50.37,54.54"/>
    </edge>
    <edge id=":node3_27" function="internal">
        <lane id=":node3_27_0" index="0" disallow="pedestrian" speed="9.12" length="6.63" shape="19.13,54.52 24.01,53.78 25.47,52.92"/>
    </edge>
    <edge id=":node3_28" function="internal">
        <lane id=":node3_28_0" index="0" disallow="pedestrian" speed="30.00" length="31.16" shape="19.17,57.71 50.33,57.74"/>
    </edge>
    <edge id=":node3_29" function="internal">
        <lane id=":node3_29_0" index="0" disallow="pedestrian" speed="10.82" length="8.81" shape="19.17,57.71 26.72,58.71 27.74,59.32"/>
    </edge>
    <edge id=":node3_52" function="internal">
        <lane id=":node3_52_0" index="0" allow="bicycle" speed="6.49" length="4.29" width="2.00" shape="23.39,47.19 24.43,45.62 24.87,43.25"/>
    </edge>
    <edge id=":node3_53" function="internal">
        <lane id=":node3_53_0" index="0" allow="bicycle" speed="12.68" length="18.34" width="2.00" shape="36.10,59.33 42.30,67.19 45.00,75.07"/>
    </edge>
    <edge id=":node3_54" function="internal">
        <lane id=":node3_54_0" index="0" allow="bus" speed="7.84" length="9.32" shape="22.75,50.72 25.22,49.28 26.83,46.80 27.47,43.35"/>
    </edge>
    <edge id=":node3_55" function="internal">
        <lane id=":node3_55_0" index="0" disallow="pedestrian" speed="11.79" length="17.38" shape="32.12,59.33 32.57,59.74 37.41,67.46 39.20,74.91"/>
    </edge>
    <edge id=":node3_56" function="internal">
        <lane id=":node3_56_0" index="0" disallow="pedestrian" speed="9.12" length="11.37" shape="25.47,52.92 27.56,51.69 29.78,48.26 30.67,43.48"/>
    </edge>
    <edge id=":node3_57" function="internal">
        <lane id=":node3_57_0" index="0" disallow="pedestrian" speed="10.82" length="18.81" shape="27.74,59.32 32.04,61.89 35.13,67.26 36.00,74.82"/>
    </edge>
    <edge id=":node3_30" function="internal">
        <lane id=":node3_30_0" index="0" allow="bicycle" speed="5.73" length="2.50" width="2.00" shape="23.81,74.48 23.57,72.46 23.34,72.05"/>
    </edge>
    <edge id=":node3_31" function="internal">
        <lane id=":node3_31_0" index="0" allow="bicycle" speed="40.00" length="31.25" width="2.00" shape="23.81,74.48 24.87,43.25"/>
    </edge>
    <edge id=":node3_32" function="internal">
        <lane id=":node3_32_0" index="0" allow="bicycle" speed="12.93" length="3.36" width="2.00" shape="23.81,74.48 25.02,71.34"/>
    </edge>
    <edge id=":node3_33" function="internal">
        <lane id=":node3_33_0" index="0" allow="bus" speed="7.21" length="3.45" shape="26.41,74.55 26.04,71.35 25.92,71.15"/>
    </edge>
    <edge id=":node3_34" function="internal">
        <lane id=":node3_34_0" index="0" disallow="pedestrian" speed="12.04" length="3.88" shape="26.41,74.55 27.79,70.93"/>
    </edge>
    <edge id=":node3_35" function="internal">
        <lane id=":node3_35_0" index="0" allow="bus" speed="40.00" length="31.20" shape="26.41,74.55 27.47,43.35"/>
        <lane id=":node3_35_1" index="1" disallow="pedestrian" speed="40.00" length="31.20" shape="29.60,74.64 30.67,43.48"/>
    </edge>
    <edge id=":node3_37" function="internal">
        <lane id=":node3_37_0" index="0" disallow="pedestrian" speed="8.59" length="6.40" shape="29.60,74.64 29.07,69.99 28.21,68.50"/>
    </edge>
    <edge id=":node3_38" function="internal">
        <lane id=":node3_38_0" index="0" disallow="pedestrian" speed="40.00" length="31.14" shape="32.80,74.73 33.87,43.61"/>
    </edge>
    <edge id=":node3_39" function="internal">
        <lane id=":node3_39_0" index="0" disallow="pedestrian" speed="11.06" length="6.21" shape="32.80,74.73 33.84,68.61"/>
    </edge>
    <edge id=":node3_58" function="internal">
        <lane id=":node3_58_0" index="0" allow="bicycle" speed="5.73" length="4.87" width="2.00" shape="23.34,72.05 22.75,71.03 21.33,70.18 19.31,69.91"/>
    </edge>
    <edge id=":node3_59" function="internal">
        <lane id=":node3_59_0" index="0" allow="bicycle" speed="12.93" length="35.35" width="2.00" shape="25.02,71.34 26.83,66.69 33.89,58.23 42.57,51.46 50.45,48.74"/>
    </edge>
    <edge id=":node3_60" function="internal">
        <lane id=":node3_60_0" index="0" allow="bus" speed="7.21" length="8.23" shape="25.92,71.15 24.73,69.08 22.48,67.73 19.28,67.31"/>
    </edge>
    <edge id=":node3_61" function="internal">
        <lane id=":node3_61_0" index="0" disallow="pedestrian" speed="12.04" length="29.19" shape="27.79,70.93 29.00,67.75 35.15,61.25 42.91,56.40 50.37,54.54"/>
    </edge>
    <edge id=":node3_62" function="internal">
        <lane id=":node3_62_0" index="0" disallow="pedestrian" speed="8.59" length="10.60" shape="28.21,68.50 27.16,66.68 23.89,64.73 19.25,64.11"/>
    </edge>
    <edge id=":node3_63" function="internal">
        <lane id=":node3_63_0" index="0" disallow="pedestrian" speed="11.06" length="21.53" shape="33.84,68.61 34.08,67.21 37.42,61.87 42.84,58.72 50.33,57.74"/>
    </edge>
    <edge id=":node3_c0" function="crossing" crossingEdges="3to4 4to3">
        <lane id=":node3_c0_0" index="0" allow="pedestrian" speed="1.00" length="23.20" width="4.00" shape="48.47,47.72 48.14,70.92"/>
    </edge>
    <edge id=":node3_c1" function="crossing" crossingEdges="3to1 1to3">
        <lane id=":node3_c1_0" index="0" allow="pedestrian" speed="1.00" length="23.20" width="4.00" shape="23.79,45.21 46.97,46.14"/>
    </edge>
    <edge id=":node3_c2" function="crossing" crossingEdges="3to2 2to3">
        <lane id=":node3_c2_0" index="0" allow="pedestrian" speed="1.00" length="23.20" width="4.00" shape="21.33,70.89 21.05,47.69"/>
    </edge>
    <edge id=":node3_c3" function="crossing" crossingEdges="3to5 5to3">
        <lane id=":node3_c3_0" index="0" allow="pedestrian" speed="1.00" length="23.20" width="4.00" shape="46.05,73.10 22.86,72.45"/>
    </edge>
    <edge id=":node3_w0" function="walkingarea">
        <lane id=":node3_w0_0" index="0" allow="pedestrian" speed="1.00" length="3.43" width="4.00" shape="46.00,75.10 48.00,75.15 50.12,72.94 50.14,70.94 48.91,71.04 47.89,71.38 47.09,71.95 46.51,72.77 46.15,73.81"/>
    </edge>
    <edge id=":node3_w1" function="walkingarea">
        <lane id=":node3_w1_0" index="0" allow="pedestrian" speed="1.00" length="2.88" width="4.00" shape="50.47,47.74 50.49,45.75 49.05,44.23 47.06,44.14 47.11,45.23 47.37,46.12 47.84,46.82 48.51,47.32 49.38,47.63"/>
    </edge>
    <edge id=":node3_w2" function="walkingarea">
        <lane id=":node3_w2_0" index="0" allow="pedestrian" speed="1.00" length="3.88" width="4.00" shape="23.87,43.21 21.88,43.13 19.03,45.72 19.05,47.72 20.48,47.58 21.65,47.19 22.58,46.56 23.26,45.69 23.69,44.57"/>
    </edge>
    <edge id=":node3_w3" function="walkingarea">
        <lane id=":node3_w3_0" index="0" allow="pedestrian" speed="1.00" length="2.89" width="4.00" shape="19.33,70.91 19.35,72.91 20.81,74.40 22.81,74.45 22.74,73.36 22.47,72.47 21.99,71.78 21.31,71.29 20.42,71.00"/>
    </edge>
    <edge id=":node4_0" function="internal">
        <lane id=":node4_0_0" index="0" allow="bicycle" speed="5.86" length="2.78" width="2.00" shape="106.11,75.15 105.80,73.20 105.36,72.52"/>
    </edge>
    <edge id=":node4_1" function="internal">
        <lane id=":node4_1_0" index="0" allow="bicycle" speed="50.00" length="30.12" width="2.00" shape="106.11,75.15 106.25,45.03"/>
    </edge>
    <edge id=":node4_2" function="internal">
        <lane id=":node4_2_0" index="0" allow="bus" speed="7.33" length="3.29" shape="108.71,75.12 108.23,72.07 108.13,71.90"/>
    </edge>
    <edge id=":node4_3" function="internal">
        <lane id=":node4_3_0" index="0" allow="bus" speed="50.00" length="30.04" shape="108.71,75.12 108.85,45.08"/>
    </edge>
    <edge id=":node4_4" function="internal">
        <lane id=":node4_4_0" index="0" disallow="pedestrian" speed="8.68" length="6.16" shape="111.91,75.09 111.22,70.67 110.34,69.24"/>
    </edge>
    <edge id=":node4_5" function="internal">
        <lane id=":node4_5_0" index="0" disallow="pedestrian" speed="50.00" length="29.91" shape="111.91,75.09 112.05,45.14"/>
        <lane id=":node4_5_1" index="1" disallow="pedestrian" speed="50.00" length="29.91" shape="115.11,75.06 115.25,45.20"/>
    </edge>
    <edge id=":node4_20" function="internal">
        <lane id=":node4_20_0" index="0" allow="bicycle" speed="5.86" length="4.62" width="2.00" shape="105.36,72.52 104.91,71.81 103.44,70.96 101.39,70.65"/>
    </edge>
    <edge id=":node4_21" function="internal">
        <lane id=":node4_21_0" index="0" allow="bus" speed="7.33" length="8.23" shape="108.13,71.90 106.86,69.87 104.59,68.53 101.43,68.05"/>
    </edge>
    <edge id=":node4_22" function="internal">
        <lane id=":node4_22_0" index="0" disallow="pedestrian" speed="8.68" length="10.43" shape="110.34,69.24 109.25,67.48 106.00,65.55 101.47,64.85"/>
    </edge>
    <edge id=":node4_7" function="internal">
        <lane id=":node4_7_0" index="0" allow="bicycle" speed="50.00" length="29.52" width="2.00" shape="127.45,45.42 127.31,74.95"/>
    </edge>
    <edge id=":node4_8" function="internal">
        <lane id=":node4_8_0" index="0" allow="bicycle" speed="13.30" length="25.22" width="2.00" shape="127.45,45.42 125.64,56.59 120.70,64.52 116.75,66.81"/>
    </edge>
    <edge id=":node4_9" function="internal">
        <lane id=":node4_9_0" index="0" allow="bus" speed="50.00" length="29.59" shape="124.85,45.38 124.71,74.97"/>
    </edge>
    <edge id=":node4_10" function="internal">
        <lane id=":node4_10_0" index="0" disallow="pedestrian" speed="12.26" length="18.63" shape="124.85,45.38 123.25,54.02 118.82,60.14 116.78,61.16"/>
    </edge>
    <edge id=":node4_11" function="internal">
        <lane id=":node4_11_0" index="0" disallow="pedestrian" speed="50.00" length="29.73" shape="121.65,45.32 121.51,75.00"/>
        <lane id=":node4_11_1" index="1" disallow="pedestrian" speed="50.00" length="29.73" shape="118.45,45.26 118.31,75.03"/>
    </edge>
    <edge id=":node4_13" function="internal">
        <lane id=":node4_13_0" index="0" disallow="pedestrian" speed="10.85" length="8.23" shape="118.45,45.26 117.28,52.52 116.81,53.26"/>
    </edge>
    <edge id=":node4_23" function="internal">
        <lane id=":node4_23_0" index="0" allow="bicycle" speed="13.30" length="16.10" width="2.00" shape="116.75,66.81 112.61,69.21 101.39,70.65"/>
    </edge>
    <edge id=":node4_24" function="internal">
        <lane id=":node4_24_0" index="0" disallow="pedestrian" speed="12.26" length="15.97" shape="116.78,61.16 111.56,63.75 101.47,64.85"/>
    </edge>
    <edge id=":node4_25" function="internal">
        <lane id=":node4_25_0" index="0" disallow="pedestrian" speed="10.85" length="18.62" shape="116.81,53.26 114.06,57.67 108.81,60.71 101.51,61.65"/>
    </edge>
    <edge id=":node4_14" function="internal">
        <lane id=":node4_14_0" index="0" allow="bicycle" speed="5.77" length="2.40" width="2.00" shape="101.68,49.45 103.65,49.20 104.01,48.99"/>
    </edge>
    <edge id=":node4_15" function="internal">
        <lane id=":node4_15_0" index="0" allow="bicycle" speed="13.35" length="36.97" width="2.00" shape="101.68,49.45 112.81,51.18 120.78,56.00 125.62,63.92 126.70,70.95"/>
    </edge>
    <edge id=":node4_16" function="internal">
        <lane id=":node4_16_0" index="0" allow="bus" speed="7.25" length="7.24" shape="101.65,52.05 104.75,51.65 106.98,50.36 107.79,49.06"/>
    </edge>
    <edge id=":node4_17" function="internal">
        <lane id=":node4_17_0" index="0" disallow="pedestrian" speed="12.31" length="30.35" shape="101.65,52.05 110.26,53.59 116.44,57.93 120.19,65.06 120.98,71.01"/>
    </edge>
    <edge id=":node4_18" function="internal">
        <lane id=":node4_18_0" index="0" disallow="pedestrian" speed="8.62" length="12.52" shape="101.60,55.25 106.10,54.67 109.34,52.79 111.33,49.62 111.41,49.13"/>
    </edge>
    <edge id=":node4_19" function="internal">
        <lane id=":node4_19_0" index="0" disallow="pedestrian" speed="10.90" length="22.70" shape="101.56,58.45 108.83,59.57 114.04,62.71 117.21,67.86 117.69,71.04"/>
    </edge>
    <edge id=":node4_26" function="internal">
        <lane id=":node4_26_0" index="0" allow="bicycle" speed="5.77" length="4.84" width="2.00" shape="104.01,48.99 105.07,48.38 105.93,46.99 106.25,45.03"/>
    </edge>
    <edge id=":node4_27" function="internal">
        <lane id=":node4_27_0" index="0" allow="bicycle" speed="13.35" length="4.04" width="2.00" shape="126.70,70.95 127.31,74.95"/>
    </edge>
    <edge id=":node4_28" function="internal">
        <lane id=":node4_28_0" index="0" allow="bus" speed="7.25" length="4.18" shape="107.79,49.06 108.35,48.17 108.85,45.08"/>
    </edge>
    <edge id=":node4_29" function="internal">
        <lane id=":node4_29_0" index="0" disallow="pedestrian" speed="12.31" length="4.03" shape="120.98,71.01 121.51,75.00"/>
    </edge>
    <edge id=":node4_30" function="internal">
        <lane id=":node4_30_0" index="0" disallow="pedestrian" speed="8.62" length="4.04" shape="111.41,49.13 112.05,45.14"/>
    </edge>
    <edge id=":node4_31" function="internal">
        <lane id=":node4_31_0" index="0" disallow="pedestrian" speed="10.90" length="4.04" shape="117.69,71.04 118.31,75.03"/>
    </edge>
    <edge id=":node4_c0" function="crossing" crossingEdges="4to7 7to4">
        <lane id=":node4_c0_0" index="0" allow="pedestrian" speed="1.00" length="23.20" width="4.00" shape="128.29,72.94 105.09,73.16"/>
    </edge>
    <edge id=":node4_c1" function="crossing" crossingEdges="4to6 6to4">
        <lane id=":node4_c1_0" index="0" allow="pedestrian" speed="1.00" length="23.20" width="4.00" shape="105.21,47.01 128.41,47.44"/>
    </edge>
    <edge id=":node4_c2" function="crossing" crossingEdges="4to3 3to4">
        <lane id=":node4_c2_0" index="0" allow="pedestrian" speed="1.00" length="23.20" width="4.00" shape="103.38,71.68 103.70,48.48"/>
    </edge>
    <edge id=":node4_w0" function="walkingarea">
        <lane id=":node4_w0_0" index="0" allow="pedestrian" speed="1.00" length="2.96" width="4.00" shape="101.38,71.65 101.35,73.65 103.11,75.17 105.11,75.16 105.00,74.10 104.68,73.23 104.16,72.55 103.44,72.06 102.51,71.76"/>
    </edge>
    <edge id=":node4_w1" function="walkingarea">
        <lane id=":node4_w1_0" index="0" allow="pedestrian" speed="1.00" length="19.07" width="4.00" shape="128.27,70.94 128.31,74.94 130.31,74.92 130.45,45.48 128.45,45.44 128.37,49.44"/>
    </edge>
    <edge id=":node4_w2" function="walkingarea">
        <lane id=":node4_w2_0" index="0" allow="pedestrian" speed="1.00" length="2.86" width="4.00" shape="105.25,45.01 103.25,44.97 101.72,46.45 101.70,48.45 102.77,48.37 103.64,48.09 104.33,47.62 104.83,46.95 105.14,46.08"/>
    </edge>
    <edge id=":node5_w0" function="walkingarea">
        <lane id=":node5_w0_0" index="0" allow="pedestrian" speed="1.00" length="25.20" width="2.00" shape="21.45,122.91 19.46,122.85 46.64,123.61 44.65,123.55"/>
    </edge>
    <edge id=":node6_w0" function="walkingarea">
        <lane id=":node6_w0_0" index="0" allow="pedestrian" speed="1.00" length="25.20" width="2.00" shape="129.56,-14.17 131.56,-14.14 104.36,-14.64 106.36,-14.61"/>
    </edge>
    <edge id=":node7_w0" function="walkingarea">
        <lane id=":node7_w0_0" index="0" allow="pedestrian" speed="1.00" length="25.20" width="2.00" shape="105.62,128.85 103.62,128.87 130.82,128.61 128.82,128.63"/>
    </edge>
    <edge id=":node8_w0" function="walkingarea">
        <lane id=":node8_w0_0" index="0" allow="pedestrian" speed="1.00" length="18.80" width="2.00" shape="-37.13,-19.99 -35.14,-19.84 -55.88,-21.40 -53.89,-21.25"/>
    </edge>

    <edge id="1to3" from="node1" to="node3" priority="-1" length="200.00">
        <lane id="1to3_0" index="0" allow="pedestrian" speed="40.00" length="200.00" width="2.00" shape="50.49,-16.08 48.05,44.19"/>
        <lane id="1to3_1" index="1" allow="bicycle" speed="40.00" length="200.00" width="2.00" shape="48.49,-16.16 46.06,44.10"/>
        <lane id="1to3_2" index="2" allow="bus" speed="40.00" length="200.00" shape="45.89,-16.27 43.46,44.00"/>
        <lane id="1to3_3" index="3" disallow="pedestrian" speed="40.00" length="200.00" shape="42.70,-16.40 40.26,43.87"/>
        <lane id="1to3_4" index="4" disallow="pedestrian" speed="40.00" length="200.00" shape="39.50,-16.53 37.06,43.74"/>
    </edge>
    <edge id="2to3" from="node2" to="node3" priority="-1" length="200.00">
        <lane id="2to3_0" index="0" allow="pedestrian" speed="30.00" length="200.00" width="2.00" shape="-38.60,47.40 19.04,46.72"/>
        <lane id="2to3_1" index="1" allow="bicycle" speed="30.00" length="200.00" width="2.00" shape="-38.57,49.40 19.06,48.72"/>
        <lane id="2to3_2" index="2" allow="bus" speed="30.00" length="200.00" shape="-38.54,52.00 19.10,51.32"/>
        <lane id="2to3_3" index="3" disallow="pedestrian" speed="30.00" length="200.00" shape="-38.51,55.20 19.13,54.52"/>
        <lane id="2to3_4" index="4" disallow="pedestrian" speed="30.00" length="200.00" shape="-38.47,58.40 19.17,57.71"/>
    </edge>
    <edge id="2to8" from="node2" to="node8" priority="-1" length="200.00">
        <lane id="2to8_0" index="0" allow="pedestrian" speed="50.00" length="200.00" width="2.00" shape="-59.74,43.44 -54.88,-21.32"/>
        <lane id="2to8_1" index="1" allow="bicycle" speed="50.00" length="200.00" width="2.00" shape="-57.75,43.59 -52.89,-21.17"/>
        <lane id="2to8_2" index="2" disallow="pedestrian" speed="50.00" length="200.00" shape="-55.16,43.78 -50.30,-20.98"/>
        <lane id="2to8_3" index="3" disallow="pedestrian" speed="50.00" length="200.00" shape="-51.96,44.02 -47.11,-20.74"/>
    </edge>
    <edge id="3to1" from="node3" to="node1" priority="-1" length="200.00">
        <lane id="3to1_0" index="0" allow="pedestrian" speed="40.00" length="200.00" width="2.00" shape="22.87,43.17 25.31,-17.10"/>
        <lane id="3to1_1" index="1" allow="bicycle" speed="40.00" length="200.00" width="2.00" shape="24.87,43.25 27.31,-17.02"/>
        <lane id="3to1_2" index="2" allow="bus" speed="40.00" length="200.00" shape="27.47,43.35 29.91,-16.91"/>
        <lane id="3to1_3" index="3" disallow="pedestrian" speed="40.00" length="200.00" shape="30.67,43.48 33.10,-16.78"/>
        <lane id="3to1_4" index="4" disallow="pedestrian" speed="40.00" length="200.00" shape="33.87,43.61 36.30,-16.65"/>
    </edge>
    <edge id="3to2" from="node3" to="node2" priority="-1" length="200.00">