<connections>
<crossing node="node3" edges="1to3 3to1" priority="true"/> 
<crossing node="node3" edges="2to3 3to2" priority="true"/>
<crossing node="node3" edges="4to3 3to4" priority="true"/>
<crossing node="node3" edges="5to3 3to5" priority="true"/> 
<crossing node="node4" edges="4to7 7to4" priority="true"/>
<crossing node="node4" edges="4to6 6to4" priority="true"/> 
<crossing node="node4" edges="4to3 3to4" priority="true"/>

</connections>
