<?xml version="1.0" encoding="UTF-8"?>
<routes>
	<route id="route0" edges="2to3 3to4"/>
	<route id="route1" edges="7to4 4to3 3to2"/>
	<route id="route2" edges="1to3 3to5"/>
	<route id="route3" edges="5to3 3to1"/>
	<route id="route4" edges="8to2 2to3 3to4"/>
    <route id="route5" edges="8to2 2to3 3to4 4to6"/>
    <route id="route6" edges="8to2 2to3 3to4 4to7"/>
    <route id="route7" edges="8to2 2to3 3to5"/>
    <route id="route8" edges="8to2 2to3 3to1"/>
    <route id="route9" edges="1to3 3to2"/>
    <route id="route10" edges="6to4 4to3 3to1"/>
    <route id="route11" edges="2to3 3to4 4to6"/>
    <route id="route12" edges="2to3 3to5"/>
    <route id="route13" edges="5to3 3to4 4to7"/>
 
   
	<vType id="vtype0" accel="2.6" decel="4.5" sigma="0.5" length="4" width = "2" minGap="3" maxSpeed="30" color="1,1,0"/>
	<vType id="vtype1" accel="2.6" decel="4.5" sigma="0.5" length="3" width = "2.5" minGap="5" maxSpeed="50" color="0,0,1"/>
	<vType id="Truck" accel="2.6" decel="4.5" sigma="0.5" length="3" width = "2.4" minGap="3.5" maxSpeed="50" color="1,0,0"/>
	<vType id="Emergency" accel="2.5" decel="7.5" sigma="0.5" length="6.5" width = "2.16" minGap="6" maxSpeed="80" color="1,1,1"/>

	<vType id="Taxi" accel="2.6" decel="4.5" sigma="0.5" length="4.3" width = "1.8" minGap="5" maxSpeed="50" color="1,0,1"/>

    <vType id="BUS" personCapacity="30" accel="2.6" decel="4.5" sigma="0" length="8" minGap="7" maxSpeed="40" guiShape="bus"/>
    <vType id="bike" vClass="bicycle" maxSpeed="5"/>


    <vehicle id="002" type="bike" depart="0" route="route0"/>
    <vehicle id="003" type="bike" depart="0" route="route0"/>
    <flow id="flow7" type="bike" route="route10" begin="0" period="1" number="10"/>
	

	<flow id="flow0" type="vtype1" route="route0" begin="0" period="1" number="30"/>

    <vehicle id="777" route="route4" depart="0" line="taxi">
        <param key="has.taxi.device" value="true"/>
        <stop parkingArea="ParkAreaA" duration="20" triggered="true"/>
        <stop parkingArea="ParkAreaB" duration="20" triggered="true"/>
    </vehicle>
<!--     <personFlow id="p1" begin="0" end="100" number="10">
        <walk from="2to3" to="3to4" />
   </personFlow> -->




    <vehicle id="102" type="BUS" depart="0" color="1,0,1">
        <route edges="2to3 3to5"/>
        <stop busStop="busstop1" duration="40"/>
        <stop busStop="busstop5" duration="20"/>  
    </vehicle>



    <flow id="102" line="102" type="BUS" route="route12" begin="0" end="10000" period="500" color="1,0,1">
        <stop busStop="busstop1" duration="20"/>
        <stop busStop="busstop5" duration="20"/>  
    </flow>


    <flow id="103" line="103" type="BUS" route="route13" begin="0" end="10000" period="400" color="0,1,1">
        <stop busStop="busstop4" duration="60"/>
        <stop busStop="busstop2" duration="10"/>
        <stop busStop="busstop11" duration="20"/>   
    </flow>


    <flow id="101" line="101" type="BUS" route="route11" begin="50" end="10000" period="200">
        <stop busStop="busstop1" duration="40"/>
        <stop busStop="busstop2" duration="20"/>
        <stop busStop="busstop3" duration="30"/>
    </flow>



    <flow id="flow2" type="vtype0" route="route2" begin="90" period="2" number="10"/>
    <flow id="flow3" type="Taxi" route="route3" begin="90" period="1" number="10"/>
    <flow id="flow4" type="vtype1" route="route4" begin="100" period="6" number="10"/>  
    <flow id="flow5" type="vtype0" route="route1" begin="100" period="6" number="10"/>  

    <flow id="flow6" type="vtype0" route="route9" begin="100" period="6" number="10"/> 
   
  
 
     <vehicle id="780" route="route4" depart="100" line="taxi">
        <param key="has.taxi.device" value="true"/>
        <stop parkingArea="ParkAreaA" duration="20" triggered="true"/>
        <stop parkingArea="ParkAreaB" duration="20" triggered="true"/>
    </vehicle>

    <vehicle id="001" type="bike" depart="150" route="route0">
        <stop lane="3to4_1" startPos="50" duration="20" triggered="true"/>
    </vehicle>
    <vehicle id="004" type="bike" depart="150" route="route0">
        <stop lane="3to4_1" startPos="50" duration="20" triggered="true"/>
    </vehicle>
<!-- 
    <vehicle id="103" type="BUS" depart="150" color="0,0,1">
        <route edges="5to3 3to4 4to7"/>
        <stop busStop="busstop4" duration="60"/>
        <stop busStop="busstop2" duration="10"/>

        <stop busStop="busstop11" duration="20"/>      
    </vehicle> -->

     <vehicle id="781" route="route4" depart="150" line="taxi">
        <param key="has.taxi.device" value="true"/>
        <stop parkingArea="ParkAreaA" duration="20" triggered="true"/>
        <stop parkingArea="ParkAreaB" duration="20" triggered="true"/>
    </vehicle>


     <vehicle id="779" route="route4" depart="180" line="taxi">
        <param key="has.taxi.device" value="true"/>
        <stop parkingArea="ParkAreaA" duration="20" triggered="true"/>
        <stop parkingArea="ParkAreaB" duration="20" triggered="true"/>
    </vehicle>






   
</routes>
