<routes>

    <person id="p1.0" depart="0.00" jmDriveAfterRedTime="1" color="1,1,1" >
        <walk edges="2to3 3to4"/>
    </person>
    <person id="p2.0" depart="0.00">
        <walk edges="5to3 3to1"/>
    </person>
    <person id="p3.0" depart="0.00">
        <walk edges="7to4 4to3"/>
        <walk edges="4to3 3to1"/>
    </person>
    <person id="p4.0" depart="0.00">
        <walk edges="6to4 4to3"/>
    </person>
    <person id="p5.0" depart="0.00">
        <walk edges="6to4 4to3"/>
        <walk edges="4to3 3to2"/>
    </person>
    <person id="p1.1" depart="1.25">
        <walk edges="2to3 3to4"/>
    </person>
    <person id="p5.1" depart="1.43">
        <walk edges="6to4 4to3"/>
        <walk edges="4to3 3to2"/>
    </person>
    <person id="p2.1" depart="2.00">
        <walk edges="5to3 3to1"/>
    </person>
    <person id="p3.1" depart="2.00">
        <walk edges="7to4 4to3"/>
        <walk edges="4to3 3to1"/>
    </person>
    <person id="p4.1" depart="2.00">
        <walk edges="6to4 4to3"/>
    </person>
    <person id="p1.2" depart="2.50">
        <walk edges="2to3 3to4"/>
    </person>
    <person id="p5.2" depart="2.86">
        <walk edges="6to4 4to3"/>
        <walk edges="4to3 3to2"/>
    </person>
    <person id="p1.3" depart="3.75">
        <walk edges="2to3 3to4"/>
    </person>
    <person id="p2.2" depart="4.00">
        <walk edges="5to3 3to1"/>
    </person>
    <person id="p3.2" depart="4.00">
        <walk edges="7to4 4to3"/>
        <walk edges="4to3 3to1"/>
    </person>
    <person id="p4.2" depart="4.00">
        <walk edges="6to4 4to3"/>
    </person>
    <person id="p5.3" depart="4.28">
        <walk edges="6to4 4to3"/>
        <walk edges="4to3 3to2"/>
    </person>
    <person id="p1.4" depart="5.00">
        <walk edges="2to3 3to4"/>
    </person>
    <person id="p5.4" depart="5.71">
        <walk edges="6to4 4to3"/>
        <walk edges="4to3 3to2"/>
    </person>
    <person id="p2.3" depart="6.00">
        <walk edges="5to3 3to1"/>
    </person>
    <person id="p3.3" depart="6.00">
        <walk edges="7to4 4to3"/>
        <walk edges="4to3 3to1"/>
    </person>
    <person id="p4.3" depart="6.00">
        <walk edges="6to4 4to3"/>
    </person>
    <person id="p1.5" depart="6.25">
        <walk edges="2to3 3to4"/>
    </person>
    <person id="p5.5" depart="7.14">
        <walk edges="6to4 4to3"/>
        <walk edges="4to3 3to2"/>
    </person>
    <person id="p1.6" depart="7.50">
        <walk edges="2to3 3to4"/>
    </person>
    <person id="p2.4" depart="8.00">
        <walk edges="5to3 3to1"/>
    </person>
    <person id="p3.4" depart="8.00">
        <walk edges="7to4 4to3"/>
        <walk edges="4to3 3to1"/>
    </person>
    <person id="p4.4" depart="8.00">
        <walk edges="6to4 4to3"/>
    </person>
    <person id="p5.6" depart="8.57">
        <walk edges="6to4 4to3"/>
        <walk edges="4to3 3to2"/>
    </person>
    <person id="p1.7" depart="8.75">
        <walk edges="2to3 3to4"/>
    </person>
    <person id="p5.7" depart="10.00">
        <walk edges="6to4 4to3"/>
        <walk edges="4to3 3to2"/>
    </person>
    <person id="p1.8" depart="10.00">
        <walk edges="2to3 3to4"/>
    </person>
    <person id="p2.5" depart="10.00">
        <walk edges="5to3 3to1"/>
    </person>
    <person id="p3.5" depart="10.00">
        <walk edges="7to4 4to3"/>
        <walk edges="4to3 3to1"/>
    </person>
    <person id="p4.5" depart="10.00">
        <walk edges="6to4 4to3"/>
    </person>
    <person id="p1.9" depart="11.25">
        <walk edges="2to3 3to4"/>
    </person>
    <person id="p5.8" depart="11.42">
        <walk edges="6to4 4to3"/>
        <walk edges="4to3 3to2"/>
    </person>
    <person id="p2.6" depart="12.00">
        <walk edges="5to3 3to1"/>
    </person>
    <person id="p3.6" depart="12.00">
        <walk edges="7to4 4to3"/>
        <walk edges="4to3 3to1"/>
    </person>
    <person id="p4.6" depart="12.00">
        <walk edges="6to4 4to3"/>
    </person>
    <person id="p1.10" depart="12.50">
        <walk edges="2to3 3to4"/>
    </person>
    <person id="p5.9" depart="12.85">
        <walk edges="6to4 4to3"/>
        <walk edges="4to3 3to2"/>
    </person>
    <person id="p1.11" depart="13.75">
        <walk edges="2to3 3to4"/>
    </person>
    <person id="p2.7" depart="14.00">
        <walk edges="5to3 3to1"/>
    </person>
    <person id="p3.7" depart="14.00">
        <walk edges="7to4 4to3"/>
        <walk edges="4to3 3to1"/>
    </person>
    <person id="p4.7" depart="14.00">
        <walk edges="6to4 4to3"/>
    </person>
    <person id="p5.10" depart="14.28">
        <walk edges="6to4 4to3"/>
        <walk edges="4to3 3to2"/>
    </person>
    <person id="p1.12" depart="15.00">
        <walk edges="2to3 3to4"/>
    </person>
    <person id="p5.11" depart="15.71">
        <walk edges="6to4 4to3"/>
        <walk edges="4to3 3to2"/>
    </person>
    <person id="p2.8" depart="16.00">
        <walk edges="5to3 3to1"/>
    </person>
    <person id="p3.8" depart="16.00">
        <walk edges="7to4 4to3"/>
        <walk edges="4to3 3to1"/>
    </person>
    <person id="p4.8" depart="16.00">
        <walk edges="6to4 4to3"/>
    </person>
    <person id="p1.13" depart="16.25">
        <walk edges="2to3 3to4"/>
    </person>
    <person id="p5.12" depart="17.14">
        <walk edges="6to4 4to3"/>
        <walk edges="4to3 3to2"/>
    </person>
    <person id="p1.14" depart="17.50">
        <walk edges="2to3 3to4"/>
    </person>
    <person id="p2.9" depart="18.00">
        <walk edges="5to3 3to1"/>
    </person>
    <person id="p3.9" depart="18.00">
        <walk edges="7to4 4to3"/>
        <walk edges="4to3 3to1"/>
    </person>
    <person id="p4.9" depart="18.00">
        <walk edges="6to4 4to3"/>
    </person>
    <person id="p5.13" depart="18.56">
        <walk edges="6to4 4to3"/>
        <walk edges="4to3 3to2"/>
    </person>
    <person id="p1.15" depart="18.75">
        <walk edges="2to3 3to4"/>
    </person>
    <person id="p5.14" depart="19.99">
        <walk edges="6to4 4to3"/>
        <walk edges="4to3 3to2"/>
    </person>
    <person id="p1.16" depart="20.00">
        <walk edges="2to3 3to4"/>
    </person>
    <person id="p2.10" depart="20.00">
        <walk edges="5to3 3to1"/>
    </person>
    <person id="p3.10" depart="20.00">
        <walk edges="7to4 4to3"/>
        <walk edges="4to3 3to1"/>
    </person>
    <person id="p4.10" depart="20.00">
        <walk edges="6to4 4to3"/>
    </person>
    <person id="p1.17" depart="21.25">
        <walk edges="2to3 3to4"/>
    </person>
    <person id="p5.15" depart="21.42">
        <walk edges="6to4 4to3"/>
        <walk edges="4to3 3to2"/>
    </person>
    <person id="p2.11" depart="22.00">
        <walk edges="5to3 3to1"/>
    </person>
    <person id="p3.11" depart="22.00">
        <walk edges="7to4 4to3"/>
        <walk edges="4to3 3to1"/>
    </person>
    <person id="p4.11" depart="22.00">
        <walk edges="6to4 4to3"/>
    </person>
    <person id="p1.18" depart="22.50">
        <walk edges="2to3 3to4"/>
    </person>
    <person id="p5.16" depart="22.85">
        <walk edges="6to4 4to3"/>
        <walk edges="4to3 3to2"/>
    </person>
    <person id="p1.19" depart="23.75">
        <walk edges="2to3 3to4"/>
    </person>
    <person id="p2.12" depart="24.00">
        <walk edges="5to3 3to1"/>
    </person>
    <person id="p3.12" depart="24.00">
        <walk edges="7to4 4to3"/>
        <walk edges="4to3 3to1"/>
    </person>
    <person id="p4.12" depart="24.00">
        <walk edges="6to4 4to3"/>
    </person>
    <person id="p5.17" depart="24.28">
        <walk edges="6to4 4to3"/>
        <walk edges="4to3 3to2"/>
    </person>
    <person id="p1.20" depart="25.00">
        <walk edges="2to3 3to4"/>
    </person>
    <person id="p5.18" depart="25.70">
        <walk edges="6to4 4to3"/>
        <walk edges="4to3 3to2"/>
    </person>
    <person id="p2.13" depart="26.00">
        <walk edges="5to3 3to1"/>
    </person>
    <person id="p3.13" depart="26.00">
        <walk edges="7to4 4to3"/>
        <walk edges="4to3 3to1"/>
    </person>
    <person id="p4.13" depart="26.00">
        <walk edges="6to4 4to3"/>
    </person>
    <person id="p1.21" depart="26.25">
        <walk edges="2to3 3to4"/>
    </person>
    <person id="p5.19" depart="27.13">
        <walk edges="6to4 4to3"/>
        <walk edges="4to3 3to2"/>
    </person>
    <person id="p1.22" depart="27.50">
        <walk edges="2to3 3to4"/>
    </person>
    <person id="p2.14" depart="28.00">
        <walk edges="5to3 3to1"/>
    </person>
    <person id="p3.14" depart="28.00">
        <walk edges="7to4 4to3"/>
        <walk edges="4to3 3to1"/>
    </person>
    <person id="p4.14" depart="28.00">
        <walk edges="6to4 4to3"/>
    </person>
    <person id="p5.20" depart="28.56">
        <walk edges="6to4 4to3"/>
        <walk edges="4to3 3to2"/>
    </person>
    <person id="p1.23" depart="28.75">
        <walk edges="2to3 3to4"/>
    </person>
    <person id="p5.21" depart="29.99">
        <walk edges="6to4 4to3"/>
        <walk edges="4to3 3to2"/>
    </person>
    <person id="p1.24" depart="30.00">
        <walk edges="2to3 3to4"/>
    </person>
    <person id="p2.15" depart="30.00">
        <walk edges="5to3 3to1"/>
    </person>
    <person id="p3.15" depart="30.00">
        <walk edges="7to4 4to3"/>
        <walk edges="4to3 3to1"/>
    </person>
    <person id="p4.15" depart="30.00">
        <walk edges="6to4 4to3"/>
    </person>
    <person id="p1.25" depart="31.25">
        <walk edges="2to3 3to4"/>
    </person>
    <person id="p5.22" depart="31.42">
        <walk edges="6to4 4to3"/>
        <walk edges="4to3 3to2"/>
    </person>
    <person id="p2.16" depart="32.00">
        <walk edges="5to3 3to1"/>
    </person>
    <person id="p3.16" depart="32.00">
        <walk edges="7to4 4to3"/>
        <walk edges="4to3 3to1"/>
    </person>
    <person id="p4.16" depart="32.00">
        <walk edges="6to4 4to3"/>
    </person>
    <person id="p1.26" depart="32.50">
        <walk edges="2to3 3to4"/>
    </person>
    <person id="p5.23" depart="32.84">
        <walk edges="6to4 4to3"/>
        <walk edges="4to3 3to2"/>
    </person>
    <person id="p1.27" depart="33.75">
        <walk edges="2to3 3to4"/>
    </person>
    <person id="p2.17" depart="34.00">
        <walk edges="5to3 3to1"/>
    </person>
    <person id="p3.17" depart="34.00">
        <walk edges="7to4 4to3"/>
        <walk edges="4to3 3to1"/>
    </person>
    <person id="p4.17" depart="34.00">
        <walk edges="6to4 4to3"/>
    </person>
    <person id="p5.24" depart="34.27">
        <walk edges="6to4 4to3"/>
        <walk edges="4to3 3to2"/>
    </person>
    <person id="p1.28" depart="35.00">
        <walk edges="2to3 3to4"/>
    </person>
    <person id="p5.25" depart="35.70">
        <walk edges="6to4 4to3"/>
        <walk edges="4to3 3to2"/>
    </person>
    <person id="p2.18" depart="36.00">
        <walk edges="5to3 3to1"/>
    </person>
    <person id="p3.18" depart="36.00">
        <walk edges="7to4 4to3"/>
        <walk edges="4to3 3to1"/>
    </person>
    <person id="p4.18" depart="36.00">
        <walk edges="6to4 4to3"/>
    </person>
    <person id="p1.29" depart="36.25">
        <walk edges="2to3 3to4"/>
    </person>
    <person id="p5.26" depart="37.13">
        <walk edges="6to4 4to3"/>
        <walk edges="4to3 3to2"/>
    </person>
    <person id="p1.30" depart="37.50">
        <walk edges="2to3 3to4"/>
    </person>
    <person id="p2.19" depart="38.00">
        <walk edges="5to3 3to1"/>
    </person>
    <person id="p3.19" depart="38.00">
        <walk edges="7to4 4to3"/>
        <walk edges="4to3 3to1"/>
    </person>
    <person id="p4.19" depart="38.00">
        <walk edges="6to4 4to3"/>
    </person>
    <person id="p5.27" depart="38.56">
        <walk edges="6to4 4to3"/>
        <walk edges="4to3 3to2"/>
    </person>
    <person id="p1.31" depart="38.75">
        <walk edges="2to3 3to4"/>
    </person>
    <person id="p5.28" depart="39.98">
        <walk edges="6to4 4to3"/>
        <walk edges="4to3 3to2"/>
    </person>
    <person id="p1.32" depart="40.00">
        <walk edges="2to3 3to4"/>
    </person>
    <person id="p2.20" depart="40.00">
        <walk edges="5to3 3to1"/>
    </person>
    <person id="p3.20" depart="40.00">
        <walk edges="7to4 4to3"/>
        <walk edges="4to3 3to1"/>
    </person>
    <person id="p4.20" depart="40.00">
        <walk edges="6to4 4to3"/>
    </person>
    <person id="p1.33" depart="41.25">
        <walk edges="2to3 3to4"/>
    </person>
    <person id="p5.29" depart="41.41">
        <walk edges="6to4 4to3"/>
        <walk edges="4to3 3to2"/>
    </person>
    <person id="p2.21" depart="42.00">
        <walk edges="5to3 3to1"/>
    </person>
    <person id="p3.21" depart="42.00">
        <walk edges="7to4 4to3"/>
        <walk edges="4to3 3to1"/>
    </person>
    <person id="p4.21" depart="42.00">
        <walk edges="6to4 4to3"/>
    </person>
    <person id="p1.34" depart="42.50">
        <walk edges="2to3 3to4"/>
    </person>
    <person id="p5.30" depart="42.84">
        <walk edges="6to4 4to3"/>
        <walk edges="4to3 3to2"/>
    </person>
    <person id="p1.35" depart="43.75">
        <walk edges="2to3 3to4"/>
    </person>
    <person id="p2.22" depart="44.00">
        <walk edges="5to3 3to1"/>
    </person>
    <person id="p3.22" depart="44.00">
        <walk edges="7to4 4to3"/>
        <walk edges="4to3 3to1"/>
    </person>
    <person id="p4.22" depart="44.00">
        <walk edges="6to4 4to3"/>
    </person>
    <person id="p5.31" depart="44.27">
        <walk edges="6to4 4to3"/>
        <walk edges="4to3 3to2"/>
    </person>
    <person id="p1.36" depart="45.00">
        <walk edges="2to3 3to4"/>
    </person>
    <person id="p5.32" depart="45.70">
        <walk edges="6to4 4to3"/>
        <walk edges="4to3 3to2"/>
    </person>
    <person id="p2.23" depart="46.00">
        <walk edges="5to3 3to1"/>
    </person>
    <person id="p3.23" depart="46.00">
        <walk edges="7to4 4to3"/>
        <walk edges="4to3 3to1"/>
    </person>
    <person id="p4.23" depart="46.00">
        <walk edges="6to4 4to3"/>
    </person>
    <person id="p1.37" depart="46.25">
        <walk edges="2to3 3to4"/>
    </person>
    <person id="p5.33" depart="47.12">
        <walk edges="6to4 4to3"/>
        <walk edges="4to3 3to2"/>
    </person>
    <person id="p1.38" depart="47.50">
        <walk edges="2to3 3to4"/>
    </person>
    <person id="p2.24" depart="48.00">
        <walk edges="5to3 3to1"/>
    </person>
    <person id="p3.24" depart="48.00">
        <walk edges="7to4 4to3"/>
        <walk edges="4to3 3to1"/>
    </person>
    <person id="p4.24" depart="48.00">
        <walk edges="6to4 4to3"/>
    </person>
    <person id="p5.34" depart="48.55">
        <walk edges="6to4 4to3"/>
        <walk edges="4to3 3to2"/>
    </person>
    <person id="p1.39" depart="48.75">
        <walk edges="2to3 3to4"/>
    </person>
    <person id="p5.35" depart="49.98">
        <walk edges="6to4 4to3"/>
        <walk edges="4to3 3to2"/>
    </person>
    <person id="p1.40" depart="50.00">
        <walk edges="2to3 3to4"/>
    </person>
    <person id="p2.25" depart="50.00">
        <walk edges="5to3 3to1"/>
    </person>
    <person id="p3.25" depart="50.00">
        <walk edges="7to4 4to3"/>
        <walk edges="4to3 3to1"/>
    </person>
    <person id="p4.25" depart="50.00">
        <walk edges="6to4 4to3"/>
    </person>
    <person id="p1.41" depart="51.25">
        <walk edges="2to3 3to4"/>
    </person>
    <person id="p5.36" depart="51.41">
        <walk edges="6to4 4to3"/>
        <walk edges="4to3 3to2"/>
    </person>
    <person id="p2.26" depart="52.00">
        <walk edges="5to3 3to1"/>
    </person>
    <person id="p3.26" depart="52.00">
        <walk edges="7to4 4to3"/>
        <walk edges="4to3 3to1"/>
    </person>
    <person id="p4.26" depart="52.00">
        <walk edges="6to4 4to3"/>
    </person>
    <person id="p1.42" depart="52.50">
        <walk edges="2to3 3to4"/>
    </person>
    <person id="p5.37" depart="52.84">
        <walk edges="6to4 4to3"/>
        <walk edges="4to3 3to2"/>
    </person>
    <person id="p1.43" depart="53.75">
        <walk edges="2to3 3to4"/>
    </person>
    <person id="p2.27" depart="54.00">
        <walk edges="5to3 3to1"/>
    </person>
    <person id="p3.27" depart="54.00">
        <walk edges="7to4 4to3"/>
        <walk edges="4to3 3to1"/>
    </person>
    <person id="p4.27" depart="54.00">
        <walk edges="6to4 4to3"/>
    </person>
    <person id="p5.38" depart="54.26">
        <walk edges="6to4 4to3"/>
        <walk edges="4to3 3to2"/>
    </person>
    <person id="p1.44" depart="55.00">
        <walk edges="2to3 3to4"/>
    </person>
    <person id="p5.39" depart="55.69">
        <walk edges="6to4 4to3"/>
        <walk edges="4to3 3to2"/>
    </person>
    <person id="p2.28" depart="56.00">
        <walk edges="5to3 3to1"/>
    </person>
    <person id="p3.28" depart="56.00">
        <walk edges="7to4 4to3"/>
        <walk edges="4to3 3to1"/>
    </person>
    <person id="p4.28" depart="56.00">
        <walk edges="6to4 4to3"/>
    </person>
    <person id="p1.45" depart="56.25">
        <walk edges="2to3 3to4"/>
    </person>
    <person id="p5.40" depart="57.12">
        <walk edges="6to4 4to3"/>
        <walk edges="4to3 3to2"/>
    </person>
    <person id="p1.46" depart="57.50">
        <walk edges="2to3 3to4"/>
    </person>
    <person id="p2.29" depart="58.00">
        <walk edges="5to3 3to1"/>
    </person>
    <person id="p3.29" depart="58.00">
        <walk edges="7to4 4to3"/>
        <walk edges="4to3 3to1"/>
    </person>
    <person id="p4.29" depart="58.00">
        <walk edges="6to4 4to3"/>
    </person>
    <person id="p5.41" depart="58.55">
        <walk edges="6to4 4to3"/>
        <walk edges="4to3 3to2"/>
    </person>
    <person id="p1.47" depart="58.75">
        <walk edges="2to3 3to4"/>
    </person>
    <person id="p5.42" depart="59.98">
        <walk edges="6to4 4to3"/>
        <walk edges="4to3 3to2"/>
    </person>
    <person id="p1.48" depart="60.00">
        <walk edges="2to3 3to4"/>
    </person>
    <person id="p2.30" depart="60.00">
        <walk edges="5to3 3to1"/>
    </person>
    <person id="p3.30" depart="60.00">
        <walk edges="7to4 4to3"/>
        <walk edges="4to3 3to1"/>
    </person>
    <person id="p4.30" depart="60.00">
        <walk edges="6to4 4to3"/>
    </person>
    <person id="p1.49" depart="61.25">
        <walk edges="2to3 3to4"/>
    </person>
    <person id="p5.43" depart="61.40">
        <walk edges="6to4 4to3"/>
        <walk edges="4to3 3to2"/>
    </person>
    <person id="p2.31" depart="62.00">
        <walk edges="5to3 3to1"/>
    </person>
    <person id="p3.31" depart="62.00">
        <walk edges="7to4 4to3"/>
        <walk edges="4to3 3to1"/>
    </person>
    <person id="p4.31" depart="62.00">
        <walk edges="6to4 4to3"/>
    </person>
    <person id="p1.50" depart="62.50">
        <walk edges="2to3 3to4"/>
    </person>
    <person id="p5.44" depart="62.83">
        <walk edges="6to4 4to3"/>
        <walk edges="4to3 3to2"/>
    </person>
    <person id="p1.51" depart="63.75">
        <walk edges="2to3 3to4"/>
    </person>
    <person id="p2.32" depart="64.00">
        <walk edges="5to3 3to1"/>
    </person>
    <person id="p3.32" depart="64.00">
        <walk edges="7to4 4to3"/>
        <walk edges="4to3 3to1"/>
    </person>
    <person id="p4.32" depart="64.00">
        <walk edges="6to4 4to3"/>
    </person>
    <person id="p5.45" depart="64.26">
        <walk edges="6to4 4to3"/>
        <walk edges="4to3 3to2"/>
    </person>
    <person id="p1.52" depart="65.00">
        <walk edges="2to3 3to4"/>
    </person>
    <person id="p5.46" depart="65.69">
        <walk edges="6to4 4to3"/>
        <walk edges="4to3 3to2"/>
    </person>
    <person id="p2.33" depart="66.00">
        <walk edges="5to3 3to1"/>
    </person>
    <person id="p3.33" depart="66.00">
        <walk edges="7to4 4to3"/>
        <walk edges="4to3 3to1"/>
    </person>
    <person id="p4.33" depart="66.00">
        <walk edges="6to4 4to3"/>
    </person>
    <person id="p1.53" depart="66.25">
        <walk edges="2to3 3to4"/>
    </person>
    <person id="p5.47" depart="67.12">
        <walk edges="6to4 4to3"/>
        <walk edges="4to3 3to2"/>
    </person>
    <person id="p1.54" depart="67.50">
        <walk edges="2to3 3to4"/>
    </person>
    <person id="p2.34" depart="68.00">
        <walk edges="5to3 3to1"/>
    </person>
    <person id="p3.34" depart="68.00">
        <walk edges="7to4 4to3"/>
        <walk edges="4to3 3to1"/>
    </person>
    <person id="p4.34" depart="68.00">
        <walk edges="6to4 4to3"/>
    </person>
    <person id="p5.48" depart="68.54">
        <walk edges="6to4 4to3"/>
        <walk edges="4to3 3to2"/>
    </person>
    <person id="p1.55" depart="68.75">
        <walk edges="2to3 3to4"/>
    </person>
    <person id="p5.49" depart="69.97">
        <walk edges="6to4 4to3"/>
        <walk edges="4to3 3to2"/>
    </person>
    <person id="p1.56" depart="70.00">
        <walk edges="2to3 3to4"/>
    </person>
    <person id="p2.35" depart="70.00">
        <walk edges="5to3 3to1"/>
    </person>
    <person id="p3.35" depart="70.00">
        <walk edges="7to4 4to3"/>
        <walk edges="4to3 3to1"/>
    </person>
    <person id="p4.35" depart="70.00">
        <walk edges="6to4 4to3"/>
    </person>
    <person id="p1.57" depart="71.25">
        <walk edges="2to3 3to4"/>
    </person>
    <person id="p5.50" depart="71.40">
        <walk edges="6to4 4to3"/>
        <walk edges="4to3 3to2"/>
    </person>
    <person id="p2.36" depart="72.00">
        <walk edges="5to3 3to1"/>
    </person>
    <person id="p3.36" depart="72.00">
        <walk edges="7to4 4to3"/>
        <walk edges="4to3 3to1"/>
    </person>
    <person id="p4.36" depart="72.00">
        <walk edges="6to4 4to3"/>
    </person>
    <person id="p1.58" depart="72.50">
        <walk edges="2to3 3to4"/>
    </person>
    <person id="p5.51" depart="72.83">
        <walk edges="6to4 4to3"/>
        <walk edges="4to3 3to2"/>
    </person>
    <person id="p1.59" depart="73.75">
        <walk edges="2to3 3to4"/>
    </person>
    <person id="p2.37" depart="74.00">
        <walk edges="5to3 3to1"/>
    </person>
    <person id="p3.37" depart="74.00">
        <walk edges="7to4 4to3"/>
        <walk edges="4to3 3to1"/>
    </person>
    <person id="p4.37" depart="74.00">
        <walk edges="6to4 4to3"/>
    </person>
    <person id="p5.52" depart="74.26">
        <walk edges="6to4 4to3"/>
        <walk edges="4to3 3to2"/>
    </person>
    <person id="p1.60" depart="75.00">
        <walk edges="2to3 3to4"/>
    </person>
    <person id="p5.53" depart="75.68">
        <walk edges="6to4 4to3"/>
        <walk edges="4to3 3to2"/>
    </person>
    <person id="p2.38" depart="76.00">
        <walk edges="5to3 3to1"/>
    </person>
    <person id="p3.38" depart="76.00">
        <walk edges="7to4 4to3"/>
        <walk edges="4to3 3to1"/>
    </person>
    <person id="p4.38" depart="76.00">
        <walk edges="6to4 4to3"/>
    </person>
    <person id="p1.61" depart="76.25">
        <walk edges="2to3 3to4"/>
    </person>
    <person id="p5.54" depart="77.11">
        <walk edges="6to4 4to3"/>
        <walk edges="4to3 3to2"/>
    </person>
    <person id="p1.62" depart="77.50">
        <walk edges="2to3 3to4"/>
    </person>
    <person id="p2.39" depart="78.00">
        <walk edges="5to3 3to1"/>
    </person>
    <person id="p3.39" depart="78.00">
        <walk edges="7to4 4to3"/>
        <walk edges="4to3 3to1"/>
    </person>
    <person id="p4.39" depart="78.00">
        <walk edges="6to4 4to3"/>
    </person>
    <person id="p5.55" depart="78.54">
        <walk edges="6to4 4to3"/>
        <walk edges="4to3 3to2"/>
    </person>
    <person id="p1.63" depart="78.75">
        <walk edges="2to3 3to4"/>
    </person>
    <person id="p5.56" depart="79.97">
        <walk edges="6to4 4to3"/>
        <walk edges="4to3 3to2"/>
    </person>
    <person id="p1.64" depart="80.00">
        <walk edges="2to3 3to4"/>
    </person>
    <person id="p2.40" depart="80.00">
        <walk edges="5to3 3to1"/>
    </person>
    <person id="p3.40" depart="80.00">
        <walk edges="7to4 4to3"/>
        <walk edges="4to3 3to1"/>
    </person>
    <person id="p4.40" depart="80.00">
        <walk edges="6to4 4to3"/>
    </person>
    <person id="p1.65" depart="81.25">
        <walk edges="2to3 3to4"/>
    </person>
    <person id="p5.57" depart="81.40">
        <walk edges="6to4 4to3"/>
        <walk edges="4to3 3to2"/>
    </person>
    <person id="p2.41" depart="82.00">
        <walk edges="5to3 3to1"/>
    </person>
    <person id="p3.41" depart="82.00">
        <walk edges="7to4 4to3"/>
        <walk edges="4to3 3to1"/>
    </person>
    <person id="p4.41" depart="82.00">
        <walk edges="6to4 4to3"/>
    </person>
    <person id="p1.66" depart="82.50">
        <walk edges="2to3 3to4"/>
    </person>
    <person id="p5.58" depart="82.82">
        <walk edges="6to4 4to3"/>
        <walk edges="4to3 3to2"/>
    </person>
    <person id="p1.67" depart="83.75">
        <walk edges="2to3 3to4"/>
    </person>
    <person id="p2.42" depart="84.00">
        <walk edges="5to3 3to1"/>
    </person>
    <person id="p3.42" depart="84.00">
        <walk edges="7to4 4to3"/>
        <walk edges="4to3 3to1"/>
    </person>
    <person id="p4.42" depart="84.00">
        <walk edges="6to4 4to3"/>
    </person>
    <person id="p5.59" depart="84.25">
        <walk edges="6to4 4to3"/>
        <walk edges="4to3 3to2"/>
    </person>
    <person id="p1.68" depart="85.00">
        <walk edges="2to3 3to4"/>
    </person>
    <person id="p5.60" depart="85.68">
        <walk edges="6to4 4to3"/>
        <walk edges="4to3 3to2"/>
    </person>
    <person id="p2.43" depart="86.00">
        <walk edges="5to3 3to1"/>
    </person>
    <person id="p3.43" depart="86.00">
        <walk edges="7to4 4to3"/>
        <walk edges="4to3 3to1"/>
    </person>
    <person id="p4.43" depart="86.00">
        <walk edges="6to4 4to3"/>
    </person>
    <person id="p1.69" depart="86.25">
        <walk edges="2to3 3to4"/>
    </person>
    <person id="p5.61" depart="87.11">
        <walk edges="6to4 4to3"/>
        <walk edges="4to3 3to2"/>
    </person>
    <person id="p1.70" depart="87.50">
        <walk edges="2to3 3to4"/>
    </person>
    <person id="p2.44" depart="88.00">
        <walk edges="5to3 3to1"/>
    </person>
    <person id="p3.44" depart="88.00">
        <walk edges="7to4 4to3"/>
        <walk edges="4to3 3to1"/>
    </person>
    <person id="p4.44" depart="88.00">
        <walk edges="6to4 4to3"/>
    </person>
    <person id="p5.62" depart="88.54">
        <walk edges="6to4 4to3"/>
        <walk edges="4to3 3to2"/>
    </person>
    <person id="p1.71" depart="88.75">
        <walk edges="2to3 3to4"/>
    </person>
    <person id="p5.63" depart="89.96">
        <walk edges="6to4 4to3"/>
        <walk edges="4to3 3to2"/>
    </person>
    <person id="p1.72" depart="90.00">
        <walk edges="2to3 3to4"/>
    </person>
    <person id="p2.45" depart="90.00">
        <walk edges="5to3 3to1"/>
    </person>
    <person id="p3.45" depart="90.00">
        <walk edges="7to4 4to3"/>
        <walk edges="4to3 3to1"/>
    </person>
    <person id="p4.45" depart="90.00">
        <walk edges="6to4 4to3"/>
    </person>
    <person id="p1.73" depart="91.25">
        <walk edges="2to3 3to4"/>
    </person>
    <person id="p5.64" depart="91.39">
        <walk edges="6to4 4to3"/>
        <walk edges="4to3 3to2"/>
    </person>
    <person id="p2.46" depart="92.00">
        <walk edges="5to3 3to1"/>
    </person>
    <person id="p3.46" depart="92.00">
        <walk edges="7to4 4to3"/>
        <walk edges="4to3 3to1"/>
    </person>
    <person id="p4.46" depart="92.00">
        <walk edges="6to4 4to3"/>
    </person>
    <person id="p1.74" depart="92.50">
        <walk edges="2to3 3to4"/>
    </person>
    <person id="p5.65" depart="92.82">
        <walk edges="6to4 4to3"/>
        <walk edges="4to3 3to2"/>
    </person>
    <person id="p1.75" depart="93.75">
        <walk edges="2to3 3to4"/>
    </person>
    <person id="p2.47" depart="94.00">
        <walk edges="5to3 3to1"/>
    </person>
    <person id="p3.47" depart="94.00">
        <walk edges="7to4 4to3"/>
        <walk edges="4to3 3to1"/>
    </person>
    <person id="p4.47" depart="94.00">
        <walk edges="6to4 4to3"/>
    </person>
    <person id="p5.66" depart="94.25">
        <walk edges="6to4 4to3"/>
        <walk edges="4to3 3to2"/>
    </person>
    <person id="p1.76" depart="95.00">
        <walk edges="2to3 3to4"/>
    </person>
    <person id="p5.67" depart="95.68">
        <walk edges="6to4 4to3"/>
        <walk edges="4to3 3to2"/>
    </person>
    <person id="p2.48" depart="96.00">
        <walk edges="5to3 3to1"/>
    </person>
    <person id="p3.48" depart="96.00">
        <walk edges="7to4 4to3"/>
        <walk edges="4to3 3to1"/>
    </person>
    <person id="p4.48" depart="96.00">
        <walk edges="6to4 4to3"/>
    </person>
    <person id="p1.77" depart="96.25">
        <walk edges="2to3 3to4"/>
    </person>
    <person id="p5.68" depart="97.10">
        <walk edges="6to4 4to3"/>
        <walk edges="4to3 3to2"/>
    </person>
    <person id="p1.78" depart="97.50">
        <walk edges="2to3 3to4"/>
    </person>
    <person id="p2.49" depart="98.00">
        <walk edges="5to3 3to1"/>
    </person>
    <person id="p3.49" depart="98.00">
        <walk edges="7to4 4to3"/>
        <walk edges="4to3 3to1"/>
    </person>
    <person id="p4.49" depart="98.00">
        <walk edges="6to4 4to3"/>
    </person>
    <person id="p5.69" depart="98.53">