<?xml version="1.0" encoding="UTF-8"?>

<!-- generated on 六  8/15 18:36:17 2020 by Eclipse SUMO netedit Version 1.3.1
<configuration xmlns:xsi="http://www.w3.org/2001/XMLSchema-instance" xsi:noNamespaceSchemaLocation="http://sumo.dlr.de/xsd/netconvertConfiguration.xsd">

    <input>
        <sumo-net-file value="/Users/meng1369/Desktop/sumo/hello4/hello2.net.xml"/>
    </input>

    <output>
        <output-file value="/Users/meng1369/Desktop/sumo/hello4/hello2.net.xml"/>
    </output>

    <processing>
        <geometry.max-grade.fix value="false"/>
        <offset.disable-normalization value="true"/>
        <opposites.guess.fix-lengths value="true"/>
        <lefthand value="false"/>
    </processing>

    <junctions>
        <no-internal-links value="false"/>
        <no-turnarounds value="true"/>
        <junctions.corner-detail value="5"/>
        <junctions.limit-turn-speed value="5.5"/>
        <rectangular-lane-cut value="false"/>
    </junctions>

    <pedestrian>
        <walkingareas value="false"/>
    </pedestrian>

    <netedit>
        <additional-files value="/Users/meng1369/Desktop/sumo/hello4/hello.add.xml"/>
    </netedit>

</configuration>
-->

<net version="1.3" junctionCornerDetail="5" limitTurnSpeed="5.50" xmlns:xsi="http://www.w3.org/2001/XMLSchema-instance" xsi:noNamespaceSchemaLocation="http://sumo.dlr.de/xsd/net_file.xsd">

    <location netOffset="0.00,0.00" convBoundary="-51.57,-20.62,117.96,128.74" origBoundary="-10000000000.00,-10000000000.00,10000000000.00,10000000000.00" projParameter="!"/>

    <edge id=":node1_w0" function="walkingarea">
        <lane id=":node1_w0_0" index="0" allow="pedestrian" speed="1.00" length="14.80" width="2.00" shape="44.29,-16.33 46.29,-16.25 29.51,-16.93 31.51,-16.85"/>
    </edge>
    <edge id=":node2_0" function="internal">
        <lane id=":node2_0_0" index="0" disallow="pedestrian" speed="9.68" length="22.65" shape="-42.35,64.84 -48.58,64.02 -52.88,61.38 -55.24,56.93 -55.67,50.65"/>
    </edge>
    <edge id=":node2_1" function="internal">
        <lane id=":node2_1_0" index="0" disallow="pedestrian" speed="8.49" length="17.16" shape="-42.39,61.64 -47.11,61.02 -50.37,59.02 -52.16,55.64 -52.48,50.89"/>
    </edge>
    <edge id=":node2_2" function="internal">
        <lane id=":node2_2_0" index="0" disallow="pedestrian" speed="5.36" length="6.18" shape="-46.10,51.37 -45.98,53.08 -45.34,54.30 -44.16,55.02 -42.47,55.24"/>
    </edge>
    <edge id=":node2_3" function="internal">
        <lane id=":node2_3_0" index="0" disallow="pedestrian" speed="7.10" length="11.67" shape="-49.29,51.13 -49.07,54.36 -47.85,56.66 -45.64,58.02 -42.43,58.44"/>
    </edge>
    <edge id=":node2_c0" function="crossing" crossingEdges="2to8 3to2">
        <lane id=":node2_c0_0" index="0" allow="pedestrian" speed="1.00" length="19.11" width="4.00" shape="-57.42,52.53 -44.33,66.47"/>
    </edge>
    <edge id=":node2_w0" function="walkingarea">
        <lane id=":node2_w0_0" index="0" allow="pedestrian" speed="1.00" length="14.89" width="4.00" shape="-55.96,51.16 -57.27,50.54 -59.26,50.39 -42.31,68.44 -42.33,66.44 -42.88,65.10 -47.23,66.05 -51.17,64.76 -54.14,62.56 -56.14,59.46 -57.19,55.45"/>
    </edge>
    <edge id=":node2_w1" function="walkingarea">
        <lane id=":node2_w1_0" index="0" allow="pedestrian" speed="1.00" length="1.47" width="2.00" shape="-42.48,53.64 -42.51,51.64 -42.51,51.64 -44.50,51.49 -44.49,52.16 -44.35,52.70 -44.08,53.12 -43.68,53.41 -43.15,53.59"/>
    </edge>
    <edge id=":node3_0" function="internal">
        <lane id=":node3_0_0" index="0" disallow="pedestrian" speed="6.73" length="5.39" shape="45.40,64.08 42.81,64.42 40.94,65.52 40.62,66.03"/>
    </edge>
    <edge id=":node3_1" function="internal">
        <lane id=":node3_1_0" index="0" disallow="pedestrian" speed="30.00" length="21.28" shape="45.40,64.08 24.16,64.06"/>
        <lane id=":node3_1_1" index="1" disallow="pedestrian" speed="30.00" length="21.28" shape="45.44,60.88 24.12,60.86"/>
    </edge>
    <edge id=":node3_3" function="internal">
        <lane id=":node3_3_0" index="0" disallow="pedestrian" speed="9.24" length="6.84" shape="45.44,60.88 40.11,60.04 38.89,59.27"/>
    </edge>
    <edge id=":node3_16" function="internal">
        <lane id=":node3_16_0" index="0" disallow="pedestrian" speed="6.73" length="4.24" shape="40.62,66.03 39.78,67.38 39.34,70.00"/>
    </edge>
    <edge id=":node3_17" function="internal">
        <lane id=":node3_17_0" index="0" disallow="pedestrian" speed="9.24" length="12.80" shape="38.89,59.27 36.37,57.68 34.22,53.82 33.67,48.45"/>
    </edge>
    <edge id=":node3_4" function="internal">
        <lane id=":node3_4_0" index="0" disallow="pedestrian" speed="6.48" length="4.84" shape="40.07,48.71 40.32,51.20 41.32,53.00 41.55,53.14"/>
    </edge>
    <edge id=":node3_5" function="internal">
        <lane id=":node3_5_0" index="0" disallow="pedestrian" speed="40.00" length="21.33" shape="40.07,48.71 39.34,70.00"/>
        <lane id=":node3_5_1" index="1" disallow="pedestrian" speed="40.00" length="21.33" shape="36.87,48.58 36.14,69.91"/>
    </edge>
    <edge id=":node3_7" function="internal">
        <lane id=":node3_7_0" index="0" disallow="pedestrian" speed="9.58" length="6.98" shape="36.87,48.58 35.89,53.90 35.04,55.21"/>
    </edge>
    <edge id=":node3_18" function="internal">
        <lane id=":node3_18_0" index="0" disallow="pedestrian" speed="6.48" length="4.28" shape="41.55,53.14 43.05,54.09 45.53,54.48"/>
    </edge>
    <edge id=":node3_19" function="internal">
        <lane id=":node3_19_0" index="0" disallow="pedestrian" speed="9.58" length="12.98" shape="35.04,55.21 33.44,57.71 29.51,60.03 24.12,60.86"/>
    </edge>
    <edge id=":node3_8" function="internal">
        <lane id=":node3_8_0" index="0" disallow="pedestrian" speed="6.95" length="5.78" shape="24.04,54.46 26.76,54.05 28.74,52.89 29.14,52.27"/>
    </edge>
    <edge id=":node3_9" function="internal">
        <lane id=":node3_9_0" index="0" disallow="pedestrian" speed="30.00" length="21.45" shape="24.04,54.46 45.53,54.48"/>
        <lane id=":node3_9_1" index="1" disallow="pedestrian" speed="30.00" length="21.45" shape="24.08,57.66 45.49,57.68"/>
    </edge>
    <edge id=":node3_11" function="internal">
        <lane id=":node3_11_0" index="0" disallow="pedestrian" speed="9.22" length="7.20" shape="24.08,57.66 29.49,58.37 30.98,59.26"/>
    </edge>
    <edge id=":node3_20" function="internal">
        <lane id=":node3_20_0" index="0" disallow="pedestrian" speed="6.95" length="4.24" shape="29.14,52.27 29.98,50.98 30.47,48.32"/>
    </edge>
    <edge id=":node3_21" function="internal">
        <lane id=":node3_21_0" index="0" disallow="pedestrian" speed="9.22" length="12.59" shape="30.98,59.26 33.30,60.65 35.52,64.49 36.14,69.91"/>
    </edge>
    <edge id=":node3_12" function="internal">
        <lane id=":node3_12_0" index="0" disallow="pedestrian" speed="6.46" length="4.88" shape="29.74,69.73 29.45,67.22 28.43,65.44 28.17,65.29"/>
    </edge>
    <edge id=":node3_13" function="internal">
        <lane id=":node3_13_0" index="0" disallow="pedestrian" speed="40.00" length="21.41" shape="29.74,69.73 30.47,48.32"/>
        <lane id=":node3_13_1" index="1" disallow="pedestrian" speed="40.00" length="21.41" shape="32.94,69.82 33.67,48.45"/>
    </edge>
    <edge id=":node3_15" function="internal">
        <lane id=":node3_15_0" index="0" disallow="pedestrian" speed="9.42" length="7.19" shape="32.94,69.82 33.85,64.45 34.78,62.98"/>
    </edge>
    <edge id=":node3_22" function="internal">
        <lane id=":node3_22_0" index="0" disallow="pedestrian" speed="6.46" length="4.29" shape="28.17,65.29 26.66,64.39 24.16,64.06"/>
    </edge>
    <edge id=":node3_23" function="internal">
        <lane id=":node3_23_0" index="0" disallow="pedestrian" speed="9.42" length="12.66" shape="34.78,62.98 36.25,60.63 40.13,58.37 45.49,57.68"/>
    </edge>
    <edge id=":node3_c0" function="crossing" crossingEdges="3to4 4to3">
        <lane id=":node3_c0_0" index="0" allow="pedestrian" speed="1.00" length="12.80" width="4.00" shape="43.55,52.85 43.38,65.65"/>
    </edge>
    <edge id=":node3_c1" function="crossing" crossingEdges="3to1 1to3">
        <lane id=":node3_c1_0" index="0" allow="pedestrian" speed="1.00" length="12.80" width="4.00" shape="28.79,50.25 41.58,50.77"/>
    </edge>
    <edge id=":node3_c2" function="crossing" crossingEdges="3to2 2to3">
        <lane id=":node3_c2_0" index="0" allow="pedestrian" speed="1.00" length="12.80" width="4.00" shape="26.18,65.63 26.02,52.83"/>
    </edge>
    <edge id=":node3_c3" function="crossing" crossingEdges="3to5 5to3">
        <lane id=":node3_c3_0" index="0" allow="pedestrian" speed="1.00" length="12.80" width="4.00" shape="40.99,68.05 28.20,67.69"/>
    </edge>
    <edge id=":node3_w0" function="walkingarea">
        <lane id=":node3_w0_0" index="0" allow="pedestrian" speed="1.00" length="3.65" width="4.00" shape="40.94,70.04 42.94,70.10 45.35,67.68 45.38,65.68 44.05,65.78 42.97,66.14 42.11,66.74 41.49,67.59 41.10,68.69"/>
    </edge>
    <edge id=":node3_w1" function="walkingarea">
        <lane id=":node3_w1_0" index="0" allow="pedestrian" speed="1.00" length="3.31" width="4.00" shape="45.55,52.88 45.58,50.88 43.66,48.85 41.66,48.77 41.73,50.01 42.02,51.03 42.55,51.82 43.32,52.40 44.32,52.75"/>
    </edge>
    <edge id=":node3_w2" function="walkingarea">
        <lane id=":node3_w2_0" index="0" allow="pedestrian" speed="1.00" length="3.93" width="4.00" shape="28.87,48.25 26.88,48.17 24.00,50.86 24.02,52.86 25.46,52.71 26.64,52.32 27.57,51.68 28.25,50.79 28.69,49.65"/>
    </edge>
    <edge id=":node3_w3" function="walkingarea">
        <lane id=":node3_w3_0" index="0" allow="pedestrian" speed="1.00" length="3.31" width="4.00" shape="24.18,65.66 24.20,67.66 26.14,69.63 28.14,69.69 28.06,68.44 27.75,67.43 27.21,66.64 26.43,66.08 25.42,65.75"/>
    </edge>
    <edge id=":node4_0" function="internal">
        <lane id=":node4_0_0" index="0" disallow="pedestrian" speed="6.57" length="4.79" shape="111.87,70.49 111.49,68.08 110.42,66.35 110.15,66.19"/>
    </edge>
    <edge id=":node4_1" function="internal">
        <lane id=":node4_1_0" index="0" disallow="pedestrian" speed="50.00" length="20.62" shape="111.87,70.49 111.96,49.83"/>
        <lane id=":node4_1_1" index="1" disallow="pedestrian" speed="50.00" length="20.62" shape="115.07,70.46 115.16,49.89"/>
    </edge>
    <edge id=":node4_8" function="internal">
        <lane id=":node4_8_0" index="0" disallow="pedestrian" speed="6.57" length="4.26" shape="110.15,66.19 108.64,65.29 106.16,64.92"/>
    </edge>
    <edge id=":node4_3" function="internal">
        <lane id=":node4_3_0" index="0" disallow="pedestrian" speed="50.00" length="20.44" shape="121.56,50.01 121.47,70.40"/>
        <lane id=":node4_3_1" index="1" disallow="pedestrian" speed="50.00" length="20.44" shape="118.36,49.95 118.27,70.43"/>
    </edge>
    <edge id=":node4_5" function="internal">
        <lane id=":node4_5_0" index="0" disallow="pedestrian" speed="9.26" length="6.76" shape="118.36,49.95 117.52,55.16 116.73,56.42"/>
    </edge>
    <edge id=":node4_9" function="internal">
        <lane id=":node4_9_0" index="0" disallow="pedestrian" speed="9.26" length="12.51" shape="116.73,56.42 115.21,58.86 111.44,61.04 106.21,61.72"/>
    </edge>
    <edge id=":node4_6" function="internal">
        <lane id=":node4_6_0" index="0" disallow="pedestrian" speed="6.50" length="4.70" shape="106.30,55.32 108.74,55.00 110.49,53.98 110.61,53.81"/>
    </edge>
    <edge id=":node4_7" function="internal">
        <lane id=":node4_7_0" index="0" disallow="pedestrian" speed="9.30" length="15.16" shape="106.25,58.52 111.47,59.32 115.21,61.58 117.47,65.28 117.65,66.44"/>
    </edge>
    <edge id=":node4_10" function="internal">
        <lane id=":node4_10_0" index="0" disallow="pedestrian" speed="6.50" length="4.28" shape="110.61,53.81 111.57,52.26 111.96,49.83"/>
    </edge>
    <edge id=":node4_11" function="internal">
        <lane id=":node4_11_0" index="0" disallow="pedestrian" speed="9.30" length="4.04" shape="117.65,66.44 118.27,70.43"/>
    </edge>
    <edge id=":node4_c0" function="crossing" crossingEdges="4to7 7to4">
        <lane id=":node4_c0_0" index="0" allow="pedestrian" speed="1.00" length="12.80" width="4.00" shape="123.05,68.39 110.25,68.51"/>
    </edge>
    <edge id=":node4_c1" function="crossing" crossingEdges="4to6 6to4">
        <lane id=":node4_c1_0" index="0" allow="pedestrian" speed="1.00" length="12.80" width="4.00" shape="110.33,51.80 123.12,52.04"/>
    </edge>
    <edge id=":node4_c2" function="crossing" crossingEdges="4to3 3to4">
        <lane id=":node4_c2_0" index="0" allow="pedestrian" speed="1.00" length="12.80" width="4.00" shape="108.14,66.54 108.32,53.75"/>
    </edge>
    <edge id=":node4_w0" function="walkingarea">
        <lane id=":node4_w0_0" index="0" allow="pedestrian" speed="1.00" length="3.34" width="4.00" shape="106.14,66.52 106.11,68.52 108.27,70.53 110.27,70.51 110.14,69.30 109.79,68.32 109.22,67.54 108.42,66.99 107.39,66.64"/>
    </edge>
    <edge id=":node4_w1" function="walkingarea">
        <lane id=":node4_w1_0" index="0" allow="pedestrian" speed="1.00" length="12.98" width="4.00" shape="123.03,66.39 123.07,70.39 125.07,70.37 125.16,50.08 123.16,50.04 123.09,54.04"/>
    </edge>
    <edge id=":node4_w2" function="walkingarea">
        <lane id=":node4_w2_0" index="0" allow="pedestrian" speed="1.00" length="3.28" width="4.00" shape="110.36,49.80 108.36,49.76 106.35,51.72 106.32,53.72 107.53,53.62 108.53,53.31 109.32,52.77 109.88,52.00 110.23,51.01"/>
    </edge>
    <edge id=":node5_w0" function="walkingarea">
        <lane id=":node5_w0_0" index="0" allow="pedestrian" speed="1.00" length="14.80" width="2.00" shape="26.65,123.05 24.65,123.00 41.45,123.46 39.45,123.41"/>
    </edge>
    <edge id=":node6_w0" function="walkingarea">
        <lane id=":node6_w0_0" index="0" allow="pedestrian" speed="1.00" length="14.80" width="2.00" shape="124.36,-14.27 126.36,-14.23 109.56,-14.55 111.56,-14.51"/>
    </edge>
    <edge id=":node7_w0" function="walkingarea">
        <lane id=":node7_w0_0" index="0" allow="pedestrian" speed="1.00" length="14.80" width="2.00" shape="110.82,128.80 108.82,128.82 125.62,128.66 123.62,128.68"/>
    </edge>
    <edge id=":node8_w0" function="walkingarea">
        <lane id=":node8_w0_0" index="0" allow="pedestrian" speed="1.00" length="14.80" width="2.00" shape="-39.13,-20.14 -37.13,-19.99 -53.89,-21.25 -51.89,-21.10"/>
    </edge>

    <edge id="1to3" from="node1" to="node3" priority="-1" length="200.00">
        <lane id="1to3_0" index="0" allow="pedestrian" speed="40.00" length="200.00" width="2.00" shape="45.29,-16.29 42.66,48.81"/>
        <lane id="1to3_1" index="1" disallow="pedestrian" speed="40.00" length="200.00" shape="42.70,-16.40 40.07,48.71"/>
        <lane id="1to3_2" index="2" disallow="pedestrian" speed="40.00" length="200.00" shape="39.50,-16.53 36.87,48.58"/>
    </edge>
    <edge id="2to3" from="node2" to="node3" priority="-1" length="200.00">
        <lane id="2to3_0" index="0" allow="pedestrian" speed="30.00" length="200.00" width="2.00" shape="-42.50,52.64 24.01,51.86"/>
        <lane id="2to3_1" index="1" disallow="pedestrian" speed="30.00" length="200.00" shape="-42.47,55.24 24.04,54.46"/>
        <lane id="2to3_2" index="2" disallow="pedestrian" speed="30.00" length="200.00" shape="-42.43,58.44 24.08,57.66"/>
    </edge>
    <edge id="2to8" from="node2" to="node8" priority="-1" length="200.00">
        <lane id="2to8_0" index="0" allow="pedestrian" speed="50.00" length="200.00" width="2.00" shape="-58.26,50.46 -52.89,-21.17"/>
        <lane id="2to8_1" index="1" disallow="pedestrian" speed="50.00" length="200.00" shape="-55.67,50.65 -50.30,-20.98"/>
        <lane id="2to8_2" index="2" disallow="pedestrian" speed="50.00" length="200.00" shape="-52.48,50.89 -47.11,-20.74"/>
    </edge>
    <edge id="3to1" from="node3" to="node1" priority="-1" length="200.00">
        <lane id="3to1_0" index="0" allow="pedestrian" speed="40.00" length="200.00" width="2.00" shape="27.88,48.21 30.51,-16.89"/>
        <lane id="3to1_1" index="1" disallow="pedestrian" speed="40.00" length="200.00" shape="30.47,48.32 33.10,-16.78"/>
        <lane id="3to1_2" index="2" disallow="pedestrian" speed="40.00" length="200.00" shape="33.67,48.45 36.30,-16.65"/>
    </edge>
    <edge id="3to2" from="node3" to="node2" priority="-1" length="200.00">
        <lane id="3to2_0" index="0" allow="pedestrian" speed="30.00" length="200.00" width="2.00" shape="24.19,66.66 -42.32,67.44"/>
        <lane id="3to2_1" index="1" disallow="pedestrian" speed="30.00" length="200.00" shape="24.16,64.06 -42.35,64.84"/>
        <lane id="3to2_2" index="2" disallow="pedestrian" speed="30.00" length="200.00" shape="24.12,60.86 -42.39,61.64"/>
    </edge>
    <edge id="3to4" from="node3" to="node4" priority="-1" length="200.00">
        <lane id="3to4_0" index="0" allow="pedestrian" speed="30.00" length="200.00" width="2.00" shape="45.57,51.88 106.33,52.72"/>
        <lane id="3to4_1" index="1" disallow="pedestrian" speed="30.00" length="200.00" shape="45.53,54.48 106.30,55.32"/>
        <lane id="3to4_2" index="2" disallow="pedestrian" speed="30.00" length="200.00" shape="45.49,57.68 106.25,58.52"/>
    </edge>
    <edge id="3to5" from="node3" to="node5" priority="-1" length="200.00">
        <lane id="3to5_0" index="0" allow="pedestrian" speed="40.00" length="200.00" width="2.00" shape="41.94,70.07 40.45,123.44"/>
        <lane id="3to5_1" index="1" disallow="pedestrian" speed="40.00" length="200.00" shape="39.34,70.00 37.85,123.36"/>
        <lane id="3to5_2" index="2" disallow="pedestrian" speed="40.00" length="200.00" shape="36.14,69.91 34.65,123.27"/>
    </edge>
    <edge id="4to3" from="node4" to="node3" priority="-1" length="200.00">
        <lane id="4to3_0" index="0" allow="pedestrian" speed="30.00" length="200.00" width="2.00" shape="106.13,67.52 45.36,66.68"/>
        <lane id="4to3_1" index="1" disallow="pedestrian" speed="30.00" length="200.00" shape="106.16,64.92 45.40,64.08"/>
        <lane id="4to3_2" index="2" disallow="pedestrian" speed="30.00" length="200.00" shape="106.21,61.72 45.44,60.88"/>
    </edge>
    <edge id="4to6" from="node4" to="node6" priority="-1" length="200.00">
        <lane id="4to6_0" index="0" allow="pedestrian" speed="50.00" length="200.00" width="2.00" shape="109.36,49.78 110.56,-14.53"/>
        <lane id="4to6_1" index="1" disallow="pedestrian" speed="50.00" length="200.00" shape="111.96,49.83 113.16,-14.48"/>
        <lane id="4to6_2" index="2" disallow="pedestrian" speed="50.00" length="200.00" shape="115.16,49.89 116.36,-14.42"/>
    </edge>
    <edge id="4to7" from="node4" to="node7" priority="-1" length="200.00">
        <lane id="4to7_0" index="0" allow="pedestrian" speed="50.00" length="200.00" width="2.00" shape="124.07,70.38 124.62,128.67"/>
        <lane id="4to7_1" index="1" disallow="pedestrian" speed="50.00" length="200.00" shape="121.47,70.40 122.02,128.69"/>
        <lane id="4to7_2" index="2" disallow="pedestrian" speed="50.00" length="200.00" shape="118.27,70.43 118.82,128.72"/>
    </edge>
    <edge id="5to3" from="node5" to="node3" priority="-1" length="200.00">
        <lane id="5to3_0" index="0" allow="pedestrian" speed="40.00" length="200.00" width="2.00" shape="25.65,123.02 27.14,69.66"/>
        <lane id="5to3_1" index="1" disallow="pedestrian" speed="40.00" length="200.00" shape="28.25,123.10 29.74,69.73"/>
        <lane id="5to3_2" index="2" disallow="pedestrian" speed="40.00" length="200.00" shape="31.45,123.19 32.94,69.82"/>
    </edge>
    <edge id="6to4" from="node6" to="node4" priority="-1" length="200.00">
        <lane id="6to4_0" index="0" allow="pedestrian" speed="50.00" length="200.00" width="2.00" shape="125.36,-14.25 124.16,50.06"/>
        <lane id="6to4_1" index="1" disallow="pedestrian" speed="50.00" length="200.00" shape="122.76,-14.30 121.56,50.01"/>
        <lane id="6to4_2" index="2" disallow="pedestrian" speed="50.00" length="200.00" shape="119.56,-14.36 118.36,49.95"/>
    </edge>
    <edge id="7to4" from="node7" to="node4" priority="-1" length="200.00">
        <lane id="7to4_0" index="0" allow="pedestrian" speed="50.00" length="200.00" width="2.00" shape="109.82,128.81 109.27,70.52"/>
        <lane id="7to4_1" index="1" disallow="pedestrian" speed="50.00" length="200.00" shape="112.42,128.79 111.87,70.49"/>
        <lane id="7to4_2" index="2" disallow="pedestrian" speed="50.00" length="200.00" shape="115.62,128.76 115.07,70.46"/>
    </edge>
    <edge id="8to2" from="node8" to="node2" priority="-1" length="200.00">
        <lane id="8to2_0" index="0" allow="pedestrian" speed="50.00" length="200.00" width="2.00" shape="-38.13,-20.07 -43.51,51.57"/>
        <lane id="8to2_1" index="1" disallow="pedestrian" speed="50.00" length="200.00" shape="-40.72,-20.26 -46.10,51.37"/>
        <lane id="8to2_2" index="2" disallow="pedestrian" speed="50.00" length="200.00" shape="-43.91,-20.50 -49.29,51.13"/>
    </edge>

    <tlLogic id="node3" type="static" programID="0" offset="0">
        <phase duration="37" state="rrrrgGGgrrrrgGGgGrGr"/>
        <phase duration="5"  state="rrrrgGGgrrrrgGGgrrrr"/>
        <phase duration="3"  state="rrrryyyyrrrryyyyrrrr"/>
        <phase duration="37" state="gGGgrrrrgGGgrrrrrGrG"/>
        <phase duration="5"  state="gGGgrrrrgGGgrrrrrrrr"/>
        <phase duration="3"  state="yyyyrrrryyyyrrrrrrrr"/>
    </tlLogic>
    <tlLogic id="node4" type="static" programID="0" offset="0">
        <phase duration="37" state="gGGGGgrrrrG"/>
        <phase duration="5"  state="gGGGGgrrrrr"/>
        <phase duration="3"  state="yyyyyyrrrrr"/>
        <phase duration="37" state="rrrrrrggGGr"/>
        <phase duration="5"  state="rrrrrrggrrr"/>
        <phase duration="3"  state="rrrrrryyrrr"/>
    </tlLogic>

    <junction id="node1" type="dead_end" x="37.90" y="-16.59" incLanes="3to1_0 3to1_1 3to1_2" intLanes="" shape="37.90,-16.59 29.51,-16.93 37.90,-16.59"/>
    <junction id="node2" type="priority" x="-51.57" y="60.15" incLanes="3to2_0 3to2_1 3to2_2 8to2_0 8to2_1 8to2_2 :node2_w0_0" intLanes=":node2_0_0 :node2_1_0 :node2_2_0 :node2_3_0 :node2_c0_0" shape="-42.31,68.44 -42.51,51.64 -59.26,50.39 -59.17,55.96 -57.99,60.51 -55.71,64.04 -52.34,66.53 -47.87,68.00">
        <request index="0" response="10000" foes="10000" cont="0"/>
        <request index="1" response="10000" foes="10000" cont="0"/>
        <request index="2" response="00000" foes="00000" cont="0"/>
        <request index="3" response="00000" foes="00000" cont="0"/>
        <request index="4" response="00000" foes="00011" cont="0"/>
    </junction>
    <junction id="node3" type="traffic_light" x="34.84" y="59.13" incLanes="4to3_0 4to3_1 4to3_2 1to3_0 1to3_1 1to3_2 2to3_0 2to3_1 2to3_2 5to3_0 5to3_1 5to3_2 :node3_w1_0 :node3_w2_0 :node3_w3_0 :node3_w0_0" intLanes=":node3_16_0 :node3_1_0 :node3_1_1 :node3_17_0 :node3_18_0 :node3_5_0 :node3_5_1 :node3_19_0 :node3_20_0 :node3_9_0 :node3_9_1 :node3_21_0 :node3_22_0 :node3_13_0 :node3_13_1 :node3_23_0 :node3_c0_0 :node3_c1_0 :node3_c2_0 :node3_c3_0" shape="45.35,67.68 45.58,50.88 44.48,50.64 44.10,50.36 43.84,49.96 43.69,49.46 43.66,48.85 26.88,48.17 26.51,49.65 26.10,50.17 25.55,50.54 24.85,50.77 24.00,50.86 24.20,67.66 25.30,67.87 25.69,68.14 25.95,68.52 26.10,69.02 26.14,69.63 42.94,70.10 43.24,68.74 43.57,68.27 44.04,67.93 44.63,67.73">
        <request index="0"  response="10010000000001100000" foes="10010000000001100000" cont="1"/>
        <request index="1"  response="01011111000011100000" foes="01011111100011100000" cont="0"/>
        <request index="2"  response="01011111000011100000" foes="01011111100011100000" cont="0"/>
        <request index="3"  response="00111110011011100000" foes="00111110011011100000" cont="1"/>
        <request index="4"  response="00110000000000000000" foes="00110000011000000000" cont="1"/>
        <request index="5"  response="10100000100000001001" foes="10101000111000001111" cont="0"/>
        <request index="6"  response="10100000100000001001" foes="10101000111000001111" cont="0"/>
        <request index="7"  response="01100110100000001000" foes="01100110111000001110" cont="1"/>
        <request index="8"  response="01100110000000000000" foes="01100110000000000000" cont="1"/>
        <request index="9"  response="01011110000011110000" foes="01011110000011111000" cont="0"/>
        <request index="10" response="01011110000011110000" foes="01011110000011111000" cont="0"/>
        <request index="11" response="11001110000011100110" foes="11001110000011100110" cont="1"/>
        <request index="12" response="11000000000000000000" foes="11000000000000000110" cont="1"/>
        <request index="13" response="10100000100100001000" foes="10100000111110001110" cont="0"/>
        <request index="14" response="10100000100100001000" foes="10100000111110001110" cont="0"/>
        <request index="15" response="10010000100001101000" foes="10010000111001101110" cont="1"/>
        <request index="16" response="00000000000000000000" foes="00001000011000011111" cont="0"/>
        <request index="17" response="00000000000000000000" foes="00000110000111111000" cont="0"/>
        <request index="18" response="00000000000000000000" foes="00000001111110000110" cont="0"/>
        <request index="19" response="00000000000000000000" foes="00001111100001100001" cont="0"/>
    </junction>
    <junction id="node4" type="traffic_light" x="116.57" y="60.26" incLanes="7to4_0 7to4_1 7to4_2 6to4_0 6to4_1 6to4_2 3to4_0 3to4_1 3to4_2 :node4_w1_0 :node4_w2_0 :node4_w0_0" intLanes=":node4_8_0 :node4_1_0 :node4_1_1 :node4_3_0 :node4_3_1 :node4_9_0 :node4_10_0 :node4_11_0 :node4_c0_0 :node4_c1_0 :node4_c2_0" shape="108.27,70.53 125.07,70.37 125.16,50.08 108.36,49.76 108.12,50.86 107.84,51.24 107.45,51.51 106.95,51.67 106.35,51.72 106.11,68.52 107.30,68.75 107.72,69.03 108.02,69.42 108.20,69.92">
        <request index="0"  response="10100000000" foes="10100000000" cont="1"/>
        <request index="1"  response="01111000000" foes="01111100000" cont="0"/>
        <request index="2"  response="01111000000" foes="01111100000" cont="0"/>
        <request index="3"  response="01110000000" foes="01110000000" cont="0"/>
        <request index="4"  response="01110000000" foes="01110000000" cont="0"/>
        <request index="5"  response="11010000110" foes="11010000110" cont="1"/>
        <request index="6"  response="11000000110" foes="11000000110" cont="1"/>
        <request index="7"  response="10100111110" foes="10100111110" cont="1"/>
        <request index="8"  response="00000000000" foes="00010011111" cont="0"/>
        <request index="9"  response="00000000000" foes="00001111110" cont="0"/>
        <request index="10" response="00000000000" foes="00011100001" cont="0"/>
    </junction>
    <junction id="node5" type="dead_end" x="33.05" y="123.23" incLanes="3to5_0 3to5_1 3to5_2" intLanes="" shape="33.05,123.23 41.45,123.46 33.05,123.23"/>
    <junction id="node6" type="dead_end" x="117.96" y="-14.39" incLanes="4to6_0 4to6_1 4to6_2" intLanes="" shape="117.96,-14.39 109.56,-14.55 117.96,-14.39"/>
    <junction id="node7" type="dead_end" x="117.22" y="128.74" incLanes="4to7_0 4to7_1 4to7_2" intLanes="" shape="117.22,128.74 125.62,128.66 117.22,128.74"/>
    <junction id="node8" type="dead_end" x="-45.51" y="-20.62" incLanes="2to8_0 2to8_1 2to8_2" intLanes="" shape="-45.51,-20.62 -53.89,-21.25 -45.51,-20.62"/>

    <junction id=":node3_16_0" type="internal" x="40.62" y="66.03" incLanes=":node3_0_0" intLanes=":node3_5_0 :node3_5_1 :node3_11_0 :node3_c0_0 :node3_c3_0"/>
    <junction id=":node3_17_0" type="internal" x="38.89" y="59.27" incLanes=":node3_3_0 2to3_1 2to3_2" intLanes=":node3_5_0 :node3_5_1 :node3_7_0 :node3_8_0 :node3_9_0 :node3_9_1 :node3_13_0 :node3_13_1 :node3_15_0 :node3_c0_0 :node3_c1_0"/>
    <junction id=":node3_18_0" type="internal" x="41.55" y="53.14" incLanes=":node3_4_0" intLanes=":node3_9_0 :node3_9_1 :node3_15_0 :node3_c0_0 :node3_c1_0"/>
    <junction id=":node3_19_0" type="internal" x="35.04" y="55.21" incLanes=":node3_7_0 5to3_1 5to3_2" intLanes=":node3_1_0 :node3_1_1 :node3_3_0 :node3_9_0 :node3_9_1 :node3_11_0 :node3_12_0 :node3_13_0 :node3_13_1 :node3_c1_0 :node3_c2_0"/>
    <junction id=":node3_20_0" type="internal" x="29.14" y="52.27" incLanes=":node3_8_0" intLanes=":node3_3_0 :node3_13_0 :node3_13_1 :node3_c1_0 :node3_c2_0"/>
    <junction id=":node3_21_0" type="internal" x="30.98" y="59.26" incLanes=":node3_11_0 4to3_1 4to3_2" intLanes=":node3_0_0 :node3_1_0 :node3_1_1 :node3_5_0 :node3_5_1 :node3_7_0 :node3_13_0 :node3_13_1 :node3_15_0 :node3_c2_0 :node3_c3_0"/>
    <junction id=":node3_22_0" type="internal" x="28.17" y="65.29" incLanes=":node3_12_0" intLanes=":node3_1_0 :node3_1_1 :node3_7_0 :node3_c2_0 :node3_c3_0"/>
    <junction id=":node3_23_0" type="internal" x="34.78" y="62.98" incLanes=":node3_15_0 1to3_1 1to3_2" intLanes=":node3_1_0 :node3_1_1 :node3_3_0 :node3_4_0 :node3_5_0 :node3_5_1 :node3_9_0 :node3_9_1 :node3_11_0 :node3_c0_0 :node3_c3_0"/>
    <junction id=":node4_8_0" type="internal" x="110.15" y="66.19" incLanes=":node4_0_0" intLanes=":node4_c0_0 :node4_c2_0"/>
    <junction id=":node4_9_0" type="internal" x="116.73" y="56.42" incLanes=":node4_5_0 7to4_1 7to4_2" intLanes=":node4_1_0 :node4_1_1 :node4_7_0 :node4_c1_0 :node4_c2_0"/>
    <junction id=":node4_10_0" type="internal" x="110.61" y="53.81" incLanes=":node4_6_0" intLanes=":node4_1_0 :node4_1_1 :node4_c1_0 :node4_c2_0"/>
    <junction id=":node4_11_0" type="internal" x="117.65" y="66.44" incLanes=":node4_7_0" intLanes=":node4_1_0 :node4_1_1 :node4_3_0 :node4_3_1 :node4_5_0 :node4_c0_0 :node4_c2_0"/>

    <connection from="1to3" to="3to4" fromLane="1" toLane="1" via=":node3_4_0" tl="node3" linkIndex="4" dir="r" state="o"/>