<?xml version="1.0" encoding="UTF-8"?>

<!-- generated on Tue Sep  1 17:20:24 2020 by Eclipse SUMO duarouter Version 1.3.1
<configuration xmlns:xsi="http://www.w3.org/2001/XMLSchema-instance" xsi:noNamespaceSchemaLocation="http://sumo.dlr.de/xsd/duarouterConfiguration.xsd">

    <input>
        <net-file value="bicycle1.net.xml"/>
        <route-files value="v.flow.xml"/>
    </input>

    <output>
        <output-file value="v.rou.xml"/>
        <alternatives-output value="v.rou.alt.xml"/>
    </output>

</configuration>
-->

<routes xmlns:xsi="http://www.w3.org/2001/XMLSchema-instance" xsi:noNamespaceSchemaLocation="http://sumo.dlr.de/xsd/routes_file.xsd">
    <vType id="vtype0" length="4.00" minGap="3.00" maxSpeed="30.00" width="2.00" color="yellow" accel="2.6" decel="4.5" sigma="0.5"/>
    <vehicle id="flow0.0" type="vtype0" depart="0.00">
        <route edges="2to3 3to4"/>
    </vehicle>
    <vehicle id="flow0.1" type="vtype0" depart="1.00">
        <route edges="2to3 3to4"/>
    </vehicle>
    <vehicle id="flow0.2" type="vtype0" depart="2.00">
        <route edges="2to3 3to4"/>
    </vehicle>
    <vehicle id="flow0.3" type="vtype0" depart="3.00">
        <route edges="2to3 3to4"/>
    </vehicle>
    <vehicle id="flow0.4" type="vtype0" depart="4.00">
        <route edges="2to3 3to4"/>
    </vehicle>
    <vehicle id="flow0.5" type="vtype0" depart="5.00">
        <route edges="2to3 3to4"/>
    </vehicle>
    <vehicle id="flow0.6" type="vtype0" depart="6.00">
        <route edges="2to3 3to4"/>
    </vehicle>
    <vehicle id="flow0.7" type="vtype0" depart="7.00">
        <route edges="2to3 3to4"/>
    </vehicle>
    <vehicle id="flow0.8" type="vtype0" depart="8.00">
        <route edges="2to3 3to4"/>
    </vehicle>
    <vehicle id="flow0.9" type="vtype0" depart="9.00">
        <route edges="2to3 3to4"/>
    </vehicle>
    <vehicle id="flow0.10" type="vtype0" depart="10.00">
        <route edges="2to3 3to4"/>
    </vehicle>
    <vehicle id="flow0.11" type="vtype0" depart="11.00">
        <route edges="2to3 3to4"/>
    </vehicle>
    <vehicle id="flow0.12" type="vtype0" depart="12.00">
        <route edges="2to3 3to4"/>
    </vehicle>
    <vehicle id="flow0.13" type="vtype0" depart="13.00">
        <route edges="2to3 3to4"/>
    </vehicle>
    <vehicle id="flow0.14" type="vtype0" depart="14.00">
        <route edges="2to3 3to4"/>
    </vehicle>
    <vehicle id="flow0.15" type="vtype0" depart="15.00">
        <route edges="2to3 3to4"/>
    </vehicle>
    <vehicle id="flow0.16" type="vtype0" depart="16.00">
        <route edges="2to3 3to4"/>
    </vehicle>
    <vehicle id="flow0.17" type="vtype0" depart="17.00">
        <route edges="2to3 3to4"/>
    </vehicle>
    <vehicle id="flow0.18" type="vtype0" depart="18.00">
        <route edges="2to3 3to4"/>
    </vehicle>
    <vehicle id="flow0.19" type="vtype0" depart="19.00">
        <route edges="2to3 3to4"/>
    </vehicle>
    <vehicle id="flow0.20" type="vtype0" depart="20.00">
        <route edges="2to3 3to4"/>
    </vehicle>
    <vehicle id="flow0.21" type="vtype0" depart="21.00">
        <route edges="2to3 3to4"/>
    </vehicle>
    <vehicle id="flow0.22" type="vtype0" depart="22.00">
        <route edges="2to3 3to4"/>
    </vehicle>
    <vehicle id="flow0.23" type="vtype0" depart="23.00">
        <route edges="2to3 3to4"/>
    </vehicle>
    <vehicle id="flow0.24" type="vtype0" depart="24.00">
        <route edges="2to3 3to4"/>
    </vehicle>
    <vehicle id="flow0.25" type="vtype0" depart="25.00">
        <route edges="2to3 3to4"/>
    </vehicle>
    <vehicle id="flow0.26" type="vtype0" depart="26.00">
        <route edges="2to3 3to4"/>
    </vehicle>
    <vehicle id="flow0.27" type="vtype0" depart="27.00">
        <route edges="2to3 3to4"/>
    </vehicle>
    <vehicle id="flow0.28" type="vtype0" depart="28.00">
        <route edges="2to3 3to4"/>
    </vehicle>
    <vehicle id="flow0.29" type="vtype0" depart="29.00">
        <route edges="2to3 3to4"/>
    </vehicle>
</routes>
