<?xml version="1.0" encoding="UTF-8"?>

<!-- generated on 六  8/15 23:44:41 2020 by Eclipse SUMO netedit Version 1.3.1
<configuration xmlns:xsi="http://www.w3.org/2001/XMLSchema-instance" xsi:noNamespaceSchemaLocation="http://sumo.dlr.de/xsd/netconvertConfiguration.xsd">

    <input>
        <sumo-net-file value="/Users/meng1369/Downloads/simulation/personMovement/p5_1.net.xml"/>
    </input>

    <output>
        <output-file value="/Users/meng1369/Downloads/simulation/personMovement/new.net.xml"/>
    </output>

    <processing>
        <geometry.max-grade.fix value="false"/>
        <offset.disable-normalization value="true"/>
        <opposites.guess.fix-lengths value="true"/>
        <lefthand value="false"/>
    </processing>

    <junctions>
        <no-internal-links value="false"/>
        <no-turnarounds value="true"/>
        <junctions.corner-detail value="5"/>
        <junctions.limit-turn-speed value="5.5"/>
        <rectangular-lane-cut value="false"/>
    </junctions>

    <pedestrian>
        <walkingareas value="false"/>
    </pedestrian>

    <netedit>
        <additional-files value="/Users/meng1369/Downloads/simulation/scenario2/new.add.xml"/>
    </netedit>

</configuration>
-->

<additional xmlns:xsi="http://www.w3.org/2001/XMLSchema-instance" xsi:noNamespaceSchemaLocation="http://sumo.dlr.de/xsd/additional_file.xsd">
    <busStop id="busStop0" lane="2to3_0" startPos="160" endPos="180"/>
    <busStop id="busStop1" lane="3to2_0" startPos="62.80" endPos="82.80"/>
    <busStop id="busStop10" lane="4to7_0" startPos="107.11" endPos="127.11"/>
    <busStop id="busStop11" lane="4to8_0" startPos="38.35" endPos="58.35"/>
    <busStop id="busStop12" lane="8to4_0" startPos="89.65" endPos="109.65"/>
    <busStop id="busStop2" lane="3to1_0" startPos="24.58" endPos="44.58"/>
    <busStop id="busStop3" lane="1to3_0" startPos="48.04" endPos="68.04"/>
    <busStop id="busStop4" lane="3to4_0" startPos="160" endPos="180"/>
    <busStop id="busStop5" lane="4to3_0" startPos="43.39" endPos="63.39"/>
    <busStop id="busStop6" lane="5to3_0" startPos="65.07" endPos="85.07"/>
    <busStop id="busStop7" lane="3to5_0" startPos="73.39" endPos="93.39"/>
    <busStop id="busStop8" lane="4to6_0" startPos="24.19" endPos="44.19"/>
    <busStop id="busStop9" lane="6to4_0" startPos="40.36" endPos="60.36"/>
    <parkingArea id="ParkAreaA" lane="2to3_0" startPos="0" endPos="20" roadsideCapacity="3" length="30" angle="45.00"/>
    <parkingArea id="ParkAreaB" lane="3to4_0" startPos="40" endPos="60" roadsideCapacity="3" length="30" angle="45.00"/>
</additional>
