<?xml version="1.0" encoding="UTF-8"?>

<!-- generated on 六  8/15 18:03:46 2020 by Eclipse SUMO netedit Version 1.3.1
<configuration xmlns:xsi="http://www.w3.org/2001/XMLSchema-instance" xsi:noNamespaceSchemaLocation="http://sumo.dlr.de/xsd/netconvertConfiguration.xsd">

    <input>
        <sumo-net-file value="/Users/meng1369/Downloads/simulation/personMovement/p5_1.net.xml"/>
    </input>

    <output>
        <output-file value="/Users/meng1369/Downloads/simulation/personMovement/new.net.xml"/>
    </output>

    <processing>
        <geometry.max-grade.fix value="false"/>
        <offset.disable-normalization value="true"/>
        <opposites.guess.fix-lengths value="true"/>
        <lefthand value="false"/>
    </processing>

    <junctions>
        <no-internal-links value="false"/>
        <no-turnarounds value="true"/>
        <junctions.corner-detail value="5"/>
        <junctions.limit-turn-speed value="5.5"/>
        <rectangular-lane-cut value="false"/>
    </junctions>

    <pedestrian>
        <walkingareas value="false"/>
    </pedestrian>

</configuration>
-->

<net version="1.3" junctionCornerDetail="5" limitTurnSpeed="5.50" xmlns:xsi="http://www.w3.org/2001/XMLSchema-instance" xsi:noNamespaceSchemaLocation="http://sumo.dlr.de/xsd/net_file.xsd">

    <location netOffset="0.00,0.00" convBoundary="-55.90,-21.14,266.05,137.66" origBoundary="-10000000000.00,-10000000000.00,10000000000.00,10000000000.00" projParameter="!"/>

    <edge id=":node1_w0" function="walkingarea">
        <lane id=":node1_w0_0" index="0" allow="pedestrian" speed="1.00" length="16.00" width="3.20" shape="36.23,-21.14 39.43,-21.12 39.43,-21.12 42.63,-21.11 42.63,-21.11 45.83,-21.09 26.63,-21.19 29.83,-21.17 29.83,-21.17 33.03,-21.16 33.03,-21.16 36.23,-21.14"/>
    </edge>
    <edge id=":node2_w0" function="walkingarea">
        <lane id=":node2_w0_0" index="0" allow="pedestrian" speed="1.00" length="16.00" width="3.20" shape="-55.90,63.72 -55.95,60.52 -55.95,60.52 -56.01,57.32 -56.01,57.32 -56.06,54.12 -55.74,73.32 -55.79,70.12 -55.79,70.12 -55.85,66.92 -55.85,66.92 -55.90,63.72"/>
    </edge>
    <edge id=":node3_0" function="internal">
        <lane id=":node3_0_0" index="0" speed="6.58" length="4.90" shape="28.13,76.13 27.72,73.60 26.63,71.81 26.43,71.69"/>
    </edge>
    <edge id=":node3_1" function="internal">
        <lane id=":node3_1_0" index="0" speed="50.00" length="27.61" shape="28.13,76.13 27.88,48.44"/>
        <lane id=":node3_1_1" index="1" speed="50.00" length="27.61" shape="31.33,76.06 31.08,48.45"/>
        <lane id=":node3_1_2" index="2" speed="50.00" length="27.61" shape="34.53,75.98 34.28,48.47"/>
    </edge>
    <edge id=":node3_4" function="internal">
        <lane id=":node3_4_0" index="0" speed="10.34" length="8.23" shape="34.53,75.98 35.33,69.26 36.06,67.99"/>
    </edge>
    <edge id=":node3_20" function="internal">
        <lane id=":node3_20_0" index="0" speed="6.58" length="4.30" shape="26.43,71.69 24.86,70.75 22.41,70.43"/>
    </edge>
    <edge id=":node3_21" function="internal">
        <lane id=":node3_21_0" index="0" speed="10.34" length="16.45" shape="36.06,67.99 38.10,64.43 42.84,61.51 49.54,60.49"/>
    </edge>
    <edge id=":node3_5" function="internal">
        <lane id=":node3_5_0" index="0" speed="6.48" length="4.75" shape="49.62,70.09 47.17,70.46 45.44,71.53 45.32,71.73"/>
    </edge>
    <edge id=":node3_6" function="internal">
        <lane id=":node3_6_0" index="0" speed="50.00" length="27.24" shape="49.62,70.09 22.41,70.43"/>
        <lane id=":node3_6_1" index="1" speed="50.00" length="27.24" shape="49.59,66.89 22.36,67.23"/>
        <lane id=":node3_6_2" index="2" speed="50.00" length="27.24" shape="49.56,63.69 22.30,64.03"/>
    </edge>
    <edge id=":node3_9" function="internal">
        <lane id=":node3_9_0" index="0" speed="10.34" length="7.96" shape="49.56,63.69 42.85,62.79 41.83,62.19"/>
    </edge>
    <edge id=":node3_22" function="internal">
        <lane id=":node3_22_0" index="0" speed="6.48" length="4.29" shape="45.32,71.73 44.42,73.30 44.13,75.76"/>
    </edge>
    <edge id=":node3_23" function="internal">
        <lane id=":node3_23_0" index="0" speed="10.34" length="16.72" shape="41.83,62.19 38.06,59.95 35.21,55.18 34.28,48.47"/>
    </edge>
    <edge id=":node3_10" function="internal">
        <lane id=":node3_10_0" index="0" speed="6.48" length="4.75" shape="43.88,48.52 44.22,50.97 45.26,52.72 45.47,52.84"/>
    </edge>
    <edge id=":node3_11" function="internal">
        <lane id=":node3_11_0" index="0" speed="50.00" length="27.34" shape="43.88,48.52 44.13,75.76"/>
        <lane id=":node3_11_1" index="1" speed="50.00" length="27.34" shape="40.68,48.50 40.93,75.83"/>
        <lane id=":node3_11_2" index="2" speed="50.00" length="27.34" shape="37.48,48.48 37.73,75.91"/>
    </edge>
    <edge id=":node3_14" function="internal">
        <lane id=":node3_14_0" index="0" speed="10.48" length="7.87" shape="37.48,48.48 36.50,55.19 35.95,56.13"/>
    </edge>
    <edge id=":node3_24" function="internal">
        <lane id=":node3_24_0" index="0" speed="6.48" length="4.28" shape="45.47,52.84 47.02,53.76 49.48,54.09"/>
    </edge>
    <edge id=":node3_25" function="internal">
        <lane id=":node3_25_0" index="0" speed="10.48" length="16.79" shape="35.95,56.13 33.65,60.02 28.91,62.97 22.30,64.03"/>
    </edge>
    <edge id=":node3_15" function="internal">
        <lane id=":node3_15_0" index="0" speed="6.68" length="5.18" shape="22.15,54.43 24.64,54.02 26.43,52.89 26.70,52.43"/>
    </edge>
    <edge id=":node3_16" function="internal">
        <lane id=":node3_16_0" index="0" speed="50.00" length="27.31" shape="22.15,54.43 49.48,54.09"/>
        <lane id=":node3_16_1" index="1" speed="50.00" length="27.31" shape="22.20,57.63 49.51,57.29"/>
        <lane id=":node3_16_2" index="2" speed="50.00" length="27.31" shape="22.25,60.83 49.54,60.49"/>
    </edge>
    <edge id=":node3_19" function="internal">
        <lane id=":node3_19_0" index="0" speed="10.41" length="7.99" shape="22.25,60.83 28.89,61.68 30.01,62.34"/>
    </edge>
    <edge id=":node3_26" function="internal">
        <lane id=":node3_26_0" index="0" speed="6.68" length="4.24" shape="26.70,52.43 27.51,51.02 27.88,48.44"/>
    </edge>
    <edge id=":node3_27" function="internal">
        <lane id=":node3_27_0" index="0" speed="10.41" length="16.61" shape="30.01,62.34 33.68,64.48 36.63,69.22 37.73,75.91"/>
    </edge>
    <edge id=":node3_c0" function="crossing" crossingEdges="3to5 5to3">
        <lane id=":node3_c0_0" index="0" allow="pedestrian" speed="1.00" length="19.20" width="4.00" shape="45.68,73.72 26.49,74.17"/>
    </edge>
    <edge id=":node3_c1" function="crossing" crossingEdges="3to4 4to3">
        <lane id=":node3_c1_0" index="0" allow="pedestrian" speed="1.00" length="19.20" width="4.00" shape="47.46,52.51 47.63,71.71"/>
    </edge>
    <edge id=":node3_c2" function="crossing" crossingEdges="3to1 1to3">
        <lane id=":node3_c2_0" index="0" allow="pedestrian" speed="1.00" length="19.20" width="4.00" shape="26.27,50.43 45.47,50.52"/>
    </edge>
    <edge id=":node3_c3" function="crossing" crossingEdges="3to2 2to3">
        <lane id=":node3_c3_0" index="0" allow="pedestrian" speed="1.00" length="19.20" width="4.00" shape="24.44,72.00 24.12,52.80"/>
    </edge>
    <edge id=":node3_w0" function="walkingarea">
        <lane id=":node3_w0_0" index="0" allow="pedestrian" speed="1.00" length="22.66" width="3.20" shape="26.53,76.17 29.73,76.10 29.73,76.10 32.93,76.02 32.93,76.02 36.13,75.95 36.13,75.95 39.33,75.87 39.33,75.87 42.53,75.80 42.53,75.80 45.73,75.72 49.63,71.69 49.61,68.49 49.61,68.49 49.58,65.29 49.58,65.29 49.55,62.09 49.55,62.09 49.52,58.89 49.52,58.89 49.49,55.69 49.49,55.69 49.46,52.49 45.48,48.52 42.28,48.51 42.28,48.51 39.08,48.49 39.08,48.49 35.88,48.48 35.88,48.48 32.68,48.46 32.68,48.46 29.48,48.44 29.48,48.44 26.28,48.43 22.12,52.83 22.17,56.03 22.17,56.03 22.22,59.23 22.22,59.23 22.28,62.43 22.28,62.43 22.33,65.63 22.33,65.63 22.38,68.83 22.38,68.83 22.44,72.03 26.39,74.89 26.03,73.84 25.46,73.03 24.67,72.46 23.66,72.13"/>
    </edge>
    <edge id=":node3_w1" function="walkingarea">
        <lane id=":node3_w1_0" index="0" allow="pedestrian" speed="1.00" length="2.99" width="4.00" shape="26.44,72.17 26.53,76.17 22.44,72.03 26.43,71.97"/>
    </edge>
    <edge id=":node3_w2" function="walkingarea">
        <lane id=":node3_w2_0" index="0" allow="pedestrian" speed="1.00" length="2.81" width="4.00" shape="45.63,71.72 49.63,71.69 45.73,75.72 45.63,71.72"/>
    </edge>
    <edge id=":node3_w3" function="walkingarea">
        <lane id=":node3_w3_0" index="0" allow="pedestrian" speed="1.00" length="2.81" width="4.00" shape="45.46,52.52 45.48,48.52 49.46,52.49 45.46,52.52"/>
    </edge>
    <edge id=":node3_w4" function="walkingarea">
        <lane id=":node3_w4_0" index="0" allow="pedestrian" speed="1.00" length="3.20" width="4.00" shape="26.12,52.77 22.12,52.83 26.28,48.43 26.26,52.43"/>
    </edge>
    <edge id=":node4_0" function="internal">
        <lane id=":node4_0_0" index="0" speed="6.71" length="5.32" shape="164.33,69.32 161.88,69.68 160.11,70.82 159.74,71.46"/>
    </edge>
    <edge id=":node4_1" function="internal">
        <lane id=":node4_1_0" index="0" speed="55.00" length="27.33" shape="164.33,69.32 137.06,69.31"/>
        <lane id=":node4_1_1" index="1" speed="55.00" length="27.33" shape="164.36,66.12 137.03,66.11"/>
        <lane id=":node4_1_2" index="2" speed="55.00" length="27.33" shape="164.39,62.92 137.00,62.91"/>
    </edge>
    <edge id=":node4_4" function="internal">
        <lane id=":node4_4_0" index="0" speed="10.70" length="7.74" shape="164.39,62.92 157.82,61.89 156.90,61.32"/>
    </edge>
    <edge id=":node4_20" function="internal">
        <lane id=":node4_20_0" index="0" speed="6.71" length="4.20" shape="159.74,71.46 159.00,72.73 158.57,75.42"/>
    </edge>
    <edge id=":node4_21" function="internal">
        <lane id=":node4_21_0" index="0" speed="10.70" length="17.22" shape="156.90,61.32 153.01,58.94 149.97,54.06 148.68,47.27"/>
    </edge>
    <edge id=":node4_5" function="internal">
        <lane id=":node4_5_0" index="0" speed="7.02" length="5.87" shape="158.27,46.77 158.78,49.61 159.99,51.66 160.50,51.99"/>
    </edge>
    <edge id=":node4_6" function="internal">
        <lane id=":node4_6_0" index="0" speed="50.00" length="28.39" shape="158.27,46.77 158.57,75.42"/>
        <lane id=":node4_6_1" index="1" speed="50.00" length="28.39" shape="155.07,46.93 155.37,75.32"/>
        <lane id=":node4_6_2" index="2" speed="50.00" length="28.39" shape="151.88,47.10 152.17,75.22"/>
    </edge>
    <edge id=":node4_9" function="internal">
        <lane id=":node4_9_0" index="0" speed="10.30" length="8.74" shape="151.88,47.10 151.25,53.97 150.37,55.59"/>
    </edge>
    <edge id=":node4_22" function="internal">
        <lane id=":node4_22_0" index="0" speed="7.02" length="4.29" shape="160.50,51.99 161.90,52.89 164.49,53.33"/>
    </edge>
    <edge id=":node4_23" function="internal">
        <lane id=":node4_23_0" index="0" speed="10.30" length="16.27" shape="150.37,55.59 148.57,58.89 143.82,61.87 137.00,62.91"/>
    </edge>
    <edge id=":node4_10" function="internal">
        <lane id=":node4_10_0" index="0" speed="6.41" length="4.74" shape="136.92,53.31 139.38,52.94 141.09,51.86 141.20,51.66"/>
    </edge>
    <edge id=":node4_11" function="internal">
        <lane id=":node4_11_0" index="0" speed="55.00" length="27.51" shape="136.92,53.31 164.49,53.33"/>
        <lane id=":node4_11_1" index="1" speed="55.00" length="27.51" shape="136.94,56.51 164.46,56.53"/>
        <lane id=":node4_11_2" index="2" speed="55.00" length="27.51" shape="136.97,59.71 164.43,59.73"/>
    </edge>
    <edge id=":node4_14" function="internal">
        <lane id=":node4_14_0" index="0" speed="10.31" length="8.23" shape="136.97,59.71 143.81,60.63 144.95,61.32"/>
    </edge>
    <edge id=":node4_24" function="internal">
        <lane id=":node4_24_0" index="0" speed="6.41" length="4.29" shape="141.20,51.66 142.07,50.08 142.29,47.60"/>
    </edge>
    <edge id=":node4_25" function="internal">
        <lane id=":node4_25_0" index="0" speed="10.31" length="16.77" shape="144.95,61.32 148.62,63.52 151.41,68.39 152.17,75.22"/>
    </edge>
    <edge id=":node4_15" function="internal">
        <lane id=":node4_15_0" index="0" speed="6.43" length="4.78" shape="142.58,74.93 142.30,72.45 141.29,70.69 141.07,70.56"/>
    </edge>
    <edge id=":node4_16" function="internal">
        <lane id=":node4_16_0" index="0" speed="50.00" length="27.59" shape="142.58,74.93 142.29,47.60"/>
        <lane id=":node4_16_1" index="1" speed="50.00" length="27.59" shape="145.78,75.03 145.49,47.43"/>
        <lane id=":node4_16_2" index="2" speed="50.00" length="27.59" shape="148.98,75.12 148.68,47.27"/>
    </edge>
    <edge id=":node4_19" function="internal">
        <lane id=":node4_19_0" index="0" speed="10.49" length="7.60" shape="148.98,75.12 150.12,68.33 150.50,67.72"/>
    </edge>
    <edge id=":node4_26" function="internal">
        <lane id=":node4_26_0" index="0" speed="6.43" length="4.29" shape="141.07,70.56 139.54,69.65 137.06,69.31"/>
    </edge>
    <edge id=":node4_27" function="internal">
        <lane id=":node4_27_0" index="0" speed="10.49" length="17.16" shape="150.50,67.72 153.08,63.50 157.85,60.63 164.43,59.73"/>
    </edge>
    <edge id=":node4_c0" function="crossing" crossingEdges="4to8 8to4">
        <lane id=":node4_c0_0" index="0" allow="pedestrian" speed="1.00" length="19.20" width="4.00" shape="162.51,51.71 162.31,70.90"/>
    </edge>
    <edge id=":node4_c1" function="crossing" crossingEdges="4to6 6to4">
        <lane id=":node4_c1_0" index="0" allow="pedestrian" speed="1.00" length="19.20" width="4.00" shape="140.80,49.68 159.97,48.68"/>
    </edge>
    <edge id=":node4_c2" function="crossing" crossingEdges="4to3 3to4">
        <lane id=":node4_c2_0" index="0" allow="pedestrian" speed="1.00" length="19.20" width="4.00" shape="139.07,70.90 138.90,51.70"/>
    </edge>
    <edge id=":node4_c3" function="crossing" crossingEdges="4to7 7to4">
        <lane id=":node4_c3_0" index="0" allow="pedestrian" speed="1.00" length="19.20" width="4.00" shape="160.23,73.47 141.04,72.88"/>
    </edge>
    <edge id=":node4_w0" function="walkingarea">
        <lane id=":node4_w0_0" index="0" allow="pedestrian" speed="1.00" length="22.88" width="3.20" shape="164.31,70.92 164.35,67.72 164.35,67.72 164.38,64.52 164.38,64.52 164.41,61.32 164.41,61.32 164.44,58.13 164.44,58.13 164.47,54.93 164.47,54.93 164.51,51.73 159.87,46.68 156.67,46.85 156.67,46.85 153.48,47.02 153.48,47.02 150.28,47.18 150.28,47.18 147.08,47.35 147.08,47.35 143.89,47.52 143.89,47.52 140.69,47.68 136.90,51.71 136.93,54.91 136.93,54.91 136.96,58.11 136.96,58.11 136.99,61.31 136.99,61.31 137.01,64.51 137.01,64.51 137.04,67.71 137.04,67.71 137.07,70.91 140.98,74.88 144.18,74.98 144.18,74.98 147.38,75.08 147.38,75.08 150.58,75.17 150.58,75.17 153.77,75.27 153.77,75.27 156.97,75.37 156.97,75.37 160.17,75.47 163.09,71.04 162.08,71.41 161.28,72.04 160.69,72.93 160.33,74.07"/>
    </edge>
    <edge id=":node4_w1" function="walkingarea">
        <lane id=":node4_w1_0" index="0" allow="pedestrian" speed="1.00" length="3.31" width="4.00" shape="160.31,70.88 164.31,70.92 160.17,75.47 160.29,71.47"/>
    </edge>
    <edge id=":node4_w2" function="walkingarea">
        <lane id=":node4_w2_0" index="0" allow="pedestrian" speed="1.00" length="3.95" width="4.00" shape="160.08,50.68 159.87,46.68 164.51,51.73 160.51,51.69"/>
    </edge>
    <edge id=":node4_w3" function="walkingarea">
        <lane id=":node4_w3_0" index="0" allow="pedestrian" speed="1.00" length="2.77" width="4.00" shape="140.90,51.68 136.90,51.71 140.69,47.68 140.90,51.68"/>
    </edge>
    <edge id=":node4_w4" function="walkingarea">
        <lane id=":node4_w4_0" index="0" allow="pedestrian" speed="1.00" length="2.79" width="4.00" shape="141.10,70.88 140.98,74.88 137.07,70.91 141.07,70.88"/>
    </edge>
    <edge id=":node5_w0" function="walkingarea">
        <lane id=":node5_w0_0" index="0" allow="pedestrian" speed="1.00" length="16.00" width="3.20" shape="37.57,137.66 34.37,137.73 34.37,137.73 31.17,137.81 31.17,137.81 27.97,137.88 47.17,137.44 43.97,137.51 43.97,137.51 40.77,137.59 40.77,137.59 37.57,137.66"/>
    </edge>
    <edge id=":node6_w0" function="walkingarea">
        <lane id=":node6_w0_0" index="0" allow="pedestrian" speed="1.00" length="16.00" width="3.20" shape="146.78,-19.95 149.98,-20.12 149.98,-20.12 153.17,-20.28 153.17,-20.28 156.37,-20.45 137.19,-19.45 140.39,-19.62 140.39,-19.62 143.58,-19.78 143.58,-19.78 146.78,-19.95"/>
    </edge>
    <edge id=":node7_w0" function="walkingarea">
        <lane id=":node7_w0_0" index="0" allow="pedestrian" speed="1.00" length="16.00" width="3.20" shape="148.64,137.42 145.44,137.32 145.44,137.32 142.24,137.22 142.24,137.22 139.04,137.12 158.24,137.72 155.04,137.62 155.04,137.62 151.84,137.52 151.84,137.52 148.64,137.42"/>
    </edge>
    <edge id=":node8_w0" function="walkingarea">
        <lane id=":node8_w0_0" index="0" allow="pedestrian" speed="1.00" length="16.00" width="3.20" shape="266.05,62.35 266.02,65.55 266.02,65.55 265.99,68.75 265.99,68.75 265.96,71.95 266.15,52.75 266.12,55.95 266.12,55.95 266.08,59.15 266.08,59.15 266.05,62.35"/>
    </edge>

    <edge id="1to3" from="node1" to="node3" priority="-1" length="200.00">
        <lane id="1to3_0" index="0" speed="50.00" length="200.00" shape="44.23,-21.10 43.88,48.52"/>
        <lane id="1to3_1" index="1" speed="50.00" length="200.00" shape="41.03,-21.12 40.68,48.50"/>
        <lane id="1to3_2" index="2" speed="50.00" length="200.00" shape="37.83,-21.13 37.48,48.48"/>
    </edge>
    <edge id="2to3" from="node2" to="node3" priority="-1" length="200.00">
        <lane id="2to3_0" index="0" speed="50.00" length="200.00" shape="-56.03,55.72 22.15,54.43"/>
        <lane id="2to3_1" index="1" speed="50.00" length="200.00" shape="-55.98,58.92 22.20,57.63"/>
        <lane id="2to3_2" index="2" speed="50.00" length="200.00" shape="-55.93,62.12 22.25,60.83"/>
    </edge>
    <edge id="3to1" from="node3" to="node1" priority="-1" length="200.00">
        <lane id="3to1_0" index="0" speed="50.00" length="200.00" shape="27.88,48.44 28.23,-21.18"/>
        <lane id="3to1_1" index="1" speed="50.00" length="200.00" shape="31.08,48.45 31.43,-21.16"/>
        <lane id="3to1_2" index="2" speed="50.00" length="200.00" shape="34.28,48.47 34.63,-21.15"/>
    </edge>
    <edge id="3to2" from="node3" to="node2" priority="-1" length="200.00">
        <lane id="3to2_0" index="0" speed="50.00" length="200.00" shape="22.41,70.43 -55.77,71.72"/>
        <lane id="3to2_1" index="1" speed="50.00" length="200.00" shape="22.36,67.23 -55.82,68.52"/>
        <lane id="3to2_2" index="2" speed="50.00" length="200.00" shape="22.30,64.03 -55.87,65.32"/>
    </edge>
    <edge id="3to4" from="node3" to="node4" priority="-1" length="200.00">
        <lane id="3to4_0" index="0" speed="50.00" length="200.00" shape="49.48,54.09 136.92,53.31"/>
        <lane id="3to4_1" index="1" speed="50.00" length="200.00" shape="49.51,57.29 136.94,56.51"/>
        <lane id="3to4_2" index="2" speed="50.00" length="200.00" shape="49.54,60.49 136.97,59.71"/>
    </edge>
    <edge id="3to5" from="node3" to="node5" priority="-1" length="200.00">
        <lane id="3to5_0" index="0" speed="50.00" length="200.00" shape="44.13,75.76 45.57,137.47"/>
        <lane id="3to5_1" index="1" speed="50.00" length="200.00" shape="40.93,75.83 42.37,137.55"/>
        <lane id="3to5_2" index="2" speed="50.00" length="200.00" shape="37.73,75.91 39.17,137.62"/>
    </edge>
    <edge id="4to3" from="node4" to="node3" priority="-1" length="200.00">
        <lane id="4to3_0" index="0" speed="50.00" length="200.00" shape="137.06,69.31 49.62,70.09"/>
        <lane id="4to3_1" index="1" speed="50.00" length="200.00" shape="137.03,66.11 49.59,66.89"/>
        <lane id="4to3_2" index="2" speed="50.00" length="200.00" shape="137.00,62.91 49.56,63.69"/>
    </edge>
    <edge id="4to6" from="node4" to="node6" priority="-1" length="200.00">
        <lane id="4to6_0" index="0" speed="50.00" length="200.00" shape="142.29,47.60 138.79,-19.53"/>
        <lane id="4to6_1" index="1" speed="50.00" length="200.00" shape="145.49,47.43 141.99,-19.70"/>
        <lane id="4to6_2" index="2" speed="50.00" length="200.00" shape="148.68,47.27 145.18,-19.87"/>
    </edge>
    <edge id="4to7" from="node4" to="node7" priority="-1" length="200.00">
        <lane id="4to7_0" index="0" speed="50.00" length="200.00" shape="158.57,75.42 156.64,137.67"/>
        <lane id="4to7_1" index="1" speed="50.00" length="200.00" shape="155.37,75.32 153.44,137.57"/>
        <lane id="4to7_2" index="2" speed="50.00" length="200.00" shape="152.17,75.22 150.24,137.47"/>
    </edge>
    <edge id="4to8" from="node4" to="node8" priority="-1" length="200.00">
        <lane id="4to8_0" index="0" speed="60.00" length="200.00" shape="164.49,53.33 266.13,54.35"/>
        <lane id="4to8_1" index="1" speed="60.00" length="200.00" shape="164.46,56.53 266.10,57.55"/>
        <lane id="4to8_2" index="2" speed="60.00" length="200.00" shape="164.43,59.73 266.07,60.75"/>
    </edge>
    <edge id="5to3" from="node5" to="node3" priority="-1" length="200.00">
        <lane id="5to3_0" index="0" speed="50.00" length="200.00" shape="29.57,137.85 28.13,76.13"/>
        <lane id="5to3_1" index="1" speed="50.00" length="200.00" shape="32.77,137.77 31.33,76.06"/>
        <lane id="5to3_2" index="2" speed="50.00" length="200.00" shape="35.97,137.70 34.53,75.98"/>
    </edge>
    <edge id="6to4" from="node6" to="node4" priority="-1" length="200.00">
        <lane id="6to4_0" index="0" speed="50.00" length="200.00" shape="154.77,-20.37 158.27,46.77"/>
        <lane id="6to4_1" index="1" speed="50.00" length="200.00" shape="151.57,-20.20 155.07,46.93"/>
        <lane id="6to4_2" index="2" speed="50.00" length="200.00" shape="148.38,-20.03 151.88,47.10"/>
    </edge>
    <edge id="7to4" from="node7" to="node4" priority="-1" length="200.00">
        <lane id="7to4_0" index="0" speed="50.00" length="200.00" shape="140.64,137.17 142.58,74.93"/>
        <lane id="7to4_1" index="1" speed="50.00" length="200.00" shape="143.84,137.27 145.78,75.03"/>
        <lane id="7to4_2" index="2" speed="50.00" length="200.00" shape="147.04,137.37 148.98,75.12"/>
    </edge>
    <edge id="8to4" from="node8" to="node4" priority="-1" length="200.00">
        <lane id="8to4_0" index="0" speed="60.00" length="200.00" shape="265.97,70.35 164.33,69.32"/>
        <lane id="8to4_1" index="1" speed="60.00" length="200.00" shape="266.00,67.15 164.36,66.12"/>
        <lane id="8to4_2" index="2" speed="60.00" length="200.00" shape="266.04,63.95 164.39,62.92"/>
    </edge>

    <tlLogic id="node3" type="static" programID="6" offset="0">
        <phase duration="30" state="rrrrrgGGGgrrrrrgGGGgGrGr"/>
        <phase duration="5"  state="rrrrrgGGGgrrrrrgGGGgrrrr"/>
        <phase duration="10" state="rrrrryyyyyrrrrryyyyyrrrr"/>
        <phase duration="30" state="gGGGgrrrrrgGGGgrrrrrrGrG"/>
        <phase duration="5"  state="gGGGgrrrrrgGGGgrrrrrrrrr"/>
        <phase duration="10" state="yyyyyrrrrryyyyyrrrrrrrrr"/>
    </tlLogic>
    <tlLogic id="node4" type="static" programID="0" offset="0">
        <phase duration="29" state="gGGGgrrrrrgGGGgrrrrrrGrG"/>
        <phase duration="5"  state="gGGGgrrrrrgGGGgrrrrrrrrr"/>
        <phase duration="11" state="yyyyyrrrrryyyyyrrrrrrrrr"/>
        <phase duration="29" state="rrrrrgGGGgrrrrrgGGGgGrGr"/>
        <phase duration="5"  state="rrrrrgGGGgrrrrrgGGGgrrrr"/>
        <phase duration="11" state="rrrrryyyyyrrrrryyyyyrrrr"/>
    </tlLogic>

    <junction id="node1" type="dead_end" x="36.23" y="-21.14" incLanes="3to1_0 3to1_1 3to1_2" intLanes="" shape="36.23,-21.14 26.63,-21.19 36.23,-21.14"/>
    <junction id="node2" type="dead_end" x="-55.90" y="63.72" incLanes="3to2_0 3to2_1 3to2_2" intLanes="" shape="-55.90,63.72 -55.74,73.32 -55.90,63.72"/>
    <junction id="node3" type="traffic_light" x="35.81" y="62.21" incLanes="5to3_0 5to3_1 5to3_2 4to3_0 4to3_1 4to3_2 1to3_0 1to3_1 1to3_2 2to3_0 2to3_1 2to3_2 :node3_w2_0 :node3_w3_0 :node3_w4_0 :node3_w1_0" intLanes=":node3_20_0 :node3_1_0 :node3_1_1 :node3_1_2 :node3_21_0 :node3_22_0 :node3_6_0 :node3_6_1 :node3_6_2 :node3_23_0 :node3_24_0 :node3_11_0 :node3_11_1 :node3_11_2 :node3_25_0 :node3_26_0 :node3_16_0 :node3_16_1 :node3_16_2 :node3_27_0 :node3_c0_0 :node3_c1_0 :node3_c2_0 :node3_c3_0" shape="26.53,76.17 45.73,75.72 46.12,73.50 46.66,72.71 47.42,72.15 48.41,71.81 49.63,71.69 49.46,52.49 47.24,52.06 46.47,51.52 45.91,50.74 45.58,49.75 45.48,48.52 26.28,48.43 25.81,50.85 25.23,51.70 24.42,52.31 23.38,52.69 22.12,52.83 22.44,72.03 24.67,72.46 25.46,73.03 26.03,73.84 26.39,74.89">
        <request index="0"  response="100100000000000111000000" foes="100100000000000111000000" cont="1"/>
        <request index="1"  response="010111111000001111000000" foes="010111111100001111000000" cont="0"/>
        <request index="2"  response="010111111000001111000000" foes="010111111100001111000000" cont="0"/>
        <request index="3"  response="010111111000001111000000" foes="010111111100001111000000" cont="0"/>
        <request index="4"  response="001111110011101111000000" foes="001111110011101111000000" cont="1"/>
        <request index="5"  response="001100000000000000000000" foes="001100000011100000000000" cont="1"/>
        <request index="6"  response="101000000100000000010001" foes="101010000111100000011111" cont="0"/>
        <request index="7"  response="101000000100000000010001" foes="101010000111100000011111" cont="0"/>
        <request index="8"  response="101000000100000000010001" foes="101010000111100000011111" cont="0"/>
        <request index="9"  response="011001110100000000010000" foes="011001110111100000011110" cont="1"/>
        <request index="10" response="011001110000000000000000" foes="011001110000000000000000" cont="1"/>
        <request index="11" response="010111110000001111100000" foes="010111110000001111110000" cont="0"/>
        <request index="12" response="010111110000001111100000" foes="010111110000001111110000" cont="0"/>
        <request index="13" response="010111110000001111100000" foes="010111110000001111110000" cont="0"/>
        <request index="14" response="110011110000001111001110" foes="110011110000001111001110" cont="1"/>
        <request index="15" response="110000000000000000000000" foes="110000000000000000001110" cont="1"/>
        <request index="16" response="101000000100010000010000" foes="101000000111111000011110" cont="0"/>
        <request index="17" response="101000000100010000010000" foes="101000000111111000011110" cont="0"/>
        <request index="18" response="101000000100010000010000" foes="101000000111111000011110" cont="0"/>
        <request index="19" response="100100000100000111010000" foes="100100000111100111011110" cont="1"/>
        <request index="20" response="000000000000000000000000" foes="000010000011100000111111" cont="0"/>
        <request index="21" response="000000000000000000000000" foes="000001110000011111110000" cont="0"/>
        <request index="22" response="000000000000000000000000" foes="000000001111111000001110" cont="0"/>
        <request index="23" response="000000000000000000000000" foes="000011111100000111000001" cont="0"/>
    </junction>
    <junction id="node4" type="traffic_light" x="151.01" y="61.19" incLanes="8to4_0 8to4_1 8to4_2 6to4_0 6to4_1 6to4_2 3to4_0 3to4_1 3to4_2 7to4_0 7to4_1 7to4_2 :node4_w2_0 :node4_w3_0 :node4_w4_0 :node4_w1_0" intLanes=":node4_20_0 :node4_1_0 :node4_1_1 :node4_1_2 :node4_21_0 :node4_22_0 :node4_6_0 :node4_6_1 :node4_6_2 :node4_23_0 :node4_24_0 :node4_11_0 :node4_11_1 :node4_11_2 :node4_25_0 :node4_26_0 :node4_16_0 :node4_16_1 :node4_16_2 :node4_27_0 :node4_c0_0 :node4_c1_0 :node4_c2_0 :node4_c3_0" shape="164.31,70.92 164.51,51.73 162.04,51.15 161.16,50.44 160.50,49.47 160.07,48.21 159.87,46.68 140.69,47.68 140.36,49.91 139.85,50.69 139.10,51.25 138.12,51.59 136.90,51.71 137.07,70.91 139.30,71.34 140.06,71.89 140.60,72.66 140.91,73.66 140.98,74.88 160.17,75.47 160.69,72.93 161.28,72.04 162.08,71.41 163.09,71.04">
        <request index="0"  response="100100000000000000000000" foes="100100000000000111000000" cont="1"/>
        <request index="1"  response="010110001000001000000000" foes="010111111100001111000000" cont="0"/>
        <request index="2"  response="010110001000001000000000" foes="010111111100001111000000" cont="0"/>
        <request index="3"  response="010110001000001000000000" foes="010111111100001111000000" cont="0"/>
        <request index="4"  response="001110000011101000000000" foes="001111110011101111000000" cont="1"/>
        <request index="5"  response="001100000011100000000000" foes="001100000011100000000000" cont="1"/>
        <request index="6"  response="101000000111100000011111" foes="101010000111100000011111" cont="0"/>
        <request index="7"  response="101000000111100000011111" foes="101010000111100000011111" cont="0"/>
        <request index="8"  response="101000000111100000011111" foes="101010000111100000011111" cont="0"/>
        <request index="9"  response="011001110111100000011110" foes="011001110111100000011110" cont="1"/>
        <request index="10" response="011000000000000000000000" foes="011001110000000000000000" cont="1"/>
        <request index="11" response="010110000000001000100000" foes="010111110000001111110000" cont="0"/>
        <request index="12" response="010110000000001000100000" foes="010111110000001111110000" cont="0"/>
        <request index="13" response="010110000000001000100000" foes="010111110000001111110000" cont="0"/>
        <request index="14" response="110010000000001000001110" foes="110011110000001111001110" cont="1"/>