<?xml version="1.0" encoding="UTF-8"?>
<routes>
	<route id="route0" edges="2to3 3to4"/>
	<route id="route1" edges="4to3 3to2"/>
	<route id="route2" edges="1to3 3to5"/>
	<route id="route3" edges="5to3 3to1"/>

	<vType id="vtype0" accel="2.6" decel="4.5" sigma="0.5" length="4" width = "2" minGap="4.5" maxSpeed="14" color="1,1,0"/>
	<vType id="vtype1" accel="2.6" decel="4.5" sigma="0.5" length="3" width = "2.5" minGap="6" maxSpeed="70" color="0,1,1"/>
	
	<!--<flow id="flow0" type="vtype0" route="route0" begin="0" period="3" number="100"/>	-->
	<!--<flow id="flow1" type="vtype1" route="route1" begin="0" period="3" number="100"/>-->
	<flow id="flow2" type="vtype0" route="route2" begin="0" period="3" number="100"/>
	<flow id="flow5" type="vtype0" route="route1" begin="0" period="3" number="100"/>
	<flow id="flow3" type="vtype1" route="route3" begin="0" period="3" number="100"/>
	<flow id="flow4" type="vtype1" route="route0" begin="0" period="3" number="100"/>


    <vType id="BUS" personCapacity="30" accel="2.6" decel="4.5" sigma="0" length="12" minGap="3" maxSpeed="70" color="1,1,0" guiShape="bus"/>

    <vehicle id="101" type="BUS" depart="20" color="1,1,0">
        <route edges="2to3 3to4 4to7"/>
        <stop busStop="busStop0" duration="40"/>
        <stop busStop="busStop4" duration="20"/>
        <stop busStop="busStop10" duration="60"/>
    </vehicle>
   
</routes>
