<?xml version="1.0" encoding="UTF-8"?>

<!-- generated on 五  7/10 11:55:46 2020 by Eclipse SUMO netedit Version 1.3.1
<configuration xmlns:xsi="http://www.w3.org/2001/XMLSchema-instance" xsi:noNamespaceSchemaLocation="http://sumo.dlr.de/xsd/netconvertConfiguration.xsd">

    <input>
        <sumo-net-file value="/Users/meng1369/Desktop/sumo1/p4.net.xml"/>
    </input>

    <output>
        <output-file value="/Users/meng1369/Desktop/sumo1/p4.net.xml"/>
    </output>

    <processing>
        <geometry.max-grade.fix value="false"/>
        <offset.disable-normalization value="true"/>
        <opposites.guess.fix-lengths value="true"/>
        <lefthand value="false"/>
    </processing>

    <junctions>
        <no-internal-links value="false"/>
        <no-turnarounds value="true"/>
        <junctions.corner-detail value="5"/>
        <junctions.limit-turn-speed value="5.5"/>
        <rectangular-lane-cut value="false"/>
    </junctions>

    <pedestrian>
        <walkingareas value="false"/>
    </pedestrian>

    <netedit>
        <additional-files value="/Users/meng1369/Desktop/sumo1/p4.add.xml"/>
    </netedit>

</configuration>
-->

<additional xmlns:xsi="http://www.w3.org/2001/XMLSchema-instance" xsi:noNamespaceSchemaLocation="http://sumo.dlr.de/xsd/additional_file.xsd">
    <busStop id="busStop1" lane="2to3_1" startPos="20" endPos="40"/>
    <busStop id="busStop2" lane="3to4_1" startPos="50" endPos="70"/>
    <busStop id="busStop3" lane="4to6_1" startPos="50" endPos="70"/>
</additional>
