<?xml version="1.0" encoding="UTF-8"?>

<!-- generated on 三  8/12 17:01:44 2020 by Eclipse SUMO netedit Version 1.3.1
<configuration xmlns:xsi="http://www.w3.org/2001/XMLSchema-instance" xsi:noNamespaceSchemaLocation="http://sumo.dlr.de/xsd/netconvertConfiguration.xsd">

    <input>
        <sumo-net-file value="/Users/meng1369/Downloads/simulation/diagonalCross/p5_1.net.xml"/>
    </input>

    <output>
        <output-file value="/Users/meng1369/Downloads/simulation/diagonalCross/p5_1.net.xml"/>
    </output>

    <processing>
        <geometry.max-grade.fix value="false"/>
        <offset.disable-normalization value="true"/>
        <opposites.guess.fix-lengths value="true"/>
        <lefthand value="false"/>
    </processing>

    <junctions>
        <no-internal-links value="false"/>
        <no-turnarounds value="true"/>
        <junctions.corner-detail value="5"/>
        <junctions.limit-turn-speed value="5.5"/>
        <rectangular-lane-cut value="false"/>
    </junctions>

    <pedestrian>
        <walkingareas value="false"/>
    </pedestrian>

</configuration>
-->

<net version="1.3" junctionCornerDetail="5" limitTurnSpeed="5.50" xmlns:xsi="http://www.w3.org/2001/XMLSchema-instance" xsi:noNamespaceSchemaLocation="http://sumo.dlr.de/xsd/net_file.xsd">

    <location netOffset="0.00,0.00" convBoundary="-55.90,-21.14,151.01,137.66" origBoundary="-10000000000.00,-10000000000.00,10000000000.00,10000000000.00" projParameter="!"/>

    <edge id=":node1_w0" function="walkingarea">
        <lane id=":node1_w0_0" index="0" allow="pedestrian" speed="1.00" length="9.60" width="3.20" shape="36.23,-21.14 39.43,-21.12 39.43,-21.12 42.63,-21.11 29.83,-21.17 33.03,-21.16 33.03,-21.16 36.23,-21.14"/>
    </edge>
    <edge id=":node2_w0" function="walkingarea">
        <lane id=":node2_w0_0" index="0" allow="pedestrian" speed="1.00" length="9.60" width="3.20" shape="-55.90,63.72 -55.95,60.52 -55.95,60.52 -56.01,57.32 -55.79,70.12 -55.85,66.92 -55.85,66.92 -55.90,63.72"/>
    </edge>
    <edge id=":node3_0" function="internal">
        <lane id=":node3_0_0" index="0" speed="6.56" length="4.85" shape="31.26,72.81 30.85,70.31 29.76,68.54 29.56,68.42"/>
    </edge>
    <edge id=":node3_1" function="internal">
        <lane id=":node3_1_0" index="0" speed="50.00" length="21.07" shape="31.26,72.81 31.06,51.70"/>
        <lane id=":node3_1_1" index="1" speed="50.00" length="21.07" shape="34.46,72.74 34.26,51.71"/>
    </edge>
    <edge id=":node3_3" function="internal">
        <lane id=":node3_3_0" index="0" speed="9.23" length="7.16" shape="34.46,72.74 35.09,67.43 35.99,65.86"/>
    </edge>
    <edge id=":node3_16" function="internal">
        <lane id=":node3_16_0" index="0" speed="6.56" length="4.29" shape="29.56,68.42 27.99,67.50 25.53,67.18"/>
    </edge>
    <edge id=":node3_17" function="internal">
        <lane id=":node3_17_0" index="0" speed="9.23" length="12.30" shape="35.99,65.86 37.27,63.63 41.01,61.32 46.29,60.52"/>
    </edge>
    <edge id=":node3_4" function="internal">
        <lane id=":node3_4_0" index="0" speed="6.48" length="4.75" shape="46.35,66.92 43.89,67.29 42.16,68.36 42.05,68.56"/>
    </edge>
    <edge id=":node3_5" function="internal">
        <lane id=":node3_5_0" index="0" speed="50.00" length="20.83" shape="46.35,66.92 25.53,67.18"/>
        <lane id=":node3_5_1" index="1" speed="50.00" length="20.83" shape="46.32,63.72 25.48,63.98"/>
    </edge>
    <edge id=":node3_7" function="internal">
        <lane id=":node3_7_0" index="0" speed="9.24" length="6.92" shape="46.32,63.72 41.02,63.01 39.66,62.20"/>
    </edge>
    <edge id=":node3_18" function="internal">
        <lane id=":node3_18_0" index="0" speed="6.48" length="4.29" shape="42.05,68.56 41.15,70.13 40.85,72.59"/>
    </edge>
    <edge id=":node3_19" function="internal">
        <lane id=":node3_19_0" index="0" speed="9.24" length="12.54" shape="39.66,62.20 37.25,60.77 34.99,57.00 34.26,51.71"/>
    </edge>
    <edge id=":node3_8" function="internal">
        <lane id=":node3_8_0" index="0" speed="6.48" length="4.75" shape="40.66,51.74 41.00,54.20 42.05,55.95 42.25,56.07"/>
    </edge>
    <edge id=":node3_9" function="internal">
        <lane id=":node3_9_0" index="0" speed="50.00" length="20.89" shape="40.66,51.74 40.85,72.59"/>
        <lane id=":node3_9_1" index="1" speed="50.00" length="20.89" shape="37.46,51.73 37.65,72.66"/>
    </edge>
    <edge id=":node3_11" function="internal">
        <lane id=":node3_11_0" index="0" speed="9.35" length="6.85" shape="37.46,51.73 36.69,57.02 35.92,58.31"/>
    </edge>
    <edge id=":node3_20" function="internal">
        <lane id=":node3_20_0" index="0" speed="6.48" length="4.29" shape="42.25,56.07 43.80,56.99 46.26,57.32"/>
    </edge>
    <edge id=":node3_21" function="internal">
        <lane id=":node3_21_0" index="0" speed="9.35" length="12.60" shape="35.92,58.31 34.44,60.82 30.70,63.14 25.48,63.98"/>
    </edge>
    <edge id=":node3_12" function="internal">
        <lane id=":node3_12_0" index="0" speed="6.64" length="5.04" shape="25.38,57.58 27.85,57.18 29.63,56.06 29.85,55.69"/>
    </edge>
    <edge id=":node3_13" function="internal">
        <lane id=":node3_13_0" index="0" speed="50.00" length="20.87" shape="25.38,57.58 46.26,57.32"/>
        <lane id=":node3_13_1" index="1" speed="50.00" length="20.87" shape="25.43,60.78 46.29,60.52"/>
    </edge>
    <edge id=":node3_15" function="internal">
        <lane id=":node3_15_0" index="0" speed="9.29" length="6.97" shape="25.43,60.78 30.67,61.45 32.13,62.30"/>
    </edge>
    <edge id=":node3_22" function="internal">
        <lane id=":node3_22_0" index="0" speed="6.64" length="4.25" shape="29.85,55.69 30.70,54.24 31.06,51.70"/>
    </edge>
    <edge id=":node3_23" function="internal">
        <lane id=":node3_23_0" index="0" speed="9.29" length="12.44" shape="32.13,62.30 34.46,63.65 36.78,67.39 37.65,72.66"/>
    </edge>
    <edge id=":node3_c0" function="crossing" crossingEdges="3to5 5to3">
        <lane id=":node3_c0_0" index="0" allow="pedestrian" speed="1.00" length="12.80" width="4.00" shape="42.41,70.55 29.61,70.85"/>
    </edge>
    <edge id=":node3_c1" function="crossing" crossingEdges="3to4 4to3">
        <lane id=":node3_c1_0" index="0" allow="pedestrian" speed="1.00" length="12.80" width="4.00" shape="44.25,55.74 44.36,68.53"/>
    </edge>
    <edge id=":node3_c2" function="crossing" crossingEdges="3to1 1to3">
        <lane id=":node3_c2_0" index="0" allow="pedestrian" speed="1.00" length="12.80" width="4.00" shape="29.45,53.69 42.25,53.75"/>
    </edge>
    <edge id=":node3_c3" function="crossing" crossingEdges="3to2 2to3">
        <lane id=":node3_c3_0" index="0" allow="pedestrian" speed="1.00" length="12.80" width="4.00" shape="27.56,68.75 27.35,55.95"/>
    </edge>
    <edge id=":node3_w0" function="walkingarea">
        <lane id=":node3_w0_0" index="0" allow="pedestrian" speed="1.00" length="16.52" width="3.20" shape="29.66,72.85 32.86,72.78 32.86,72.78 36.05,72.70 36.05,72.70 39.25,72.63 39.25,72.63 42.45,72.55 46.36,68.52 46.33,65.32 46.33,65.32 46.30,62.12 46.30,62.12 46.27,58.92 46.27,58.92 46.25,55.72 42.26,51.75 39.06,51.74 39.06,51.74 35.86,51.72 35.86,51.72 32.66,51.70 32.66,51.70 29.46,51.69 25.35,55.98 25.40,59.18 25.40,59.18 25.46,62.38 25.46,62.38 25.51,65.58 25.51,65.58 25.56,68.78 29.52,71.59 29.16,70.56 28.58,69.76 27.79,69.20 26.79,68.87"/>
    </edge>
    <edge id=":node3_w1" function="walkingarea">
        <lane id=":node3_w1_0" index="0" allow="pedestrian" speed="1.00" length="2.94" width="4.00" shape="29.56,68.85 29.66,72.85 25.56,68.78 29.56,68.71"/>
    </edge>
    <edge id=":node3_w2" function="walkingarea">
        <lane id=":node3_w2_0" index="0" allow="pedestrian" speed="1.00" length="2.81" width="4.00" shape="42.36,68.55 46.36,68.52 42.45,72.55 42.36,68.55"/>
    </edge>
    <edge id=":node3_w3" function="walkingarea">
        <lane id=":node3_w3_0" index="0" allow="pedestrian" speed="1.00" length="2.81" width="4.00" shape="42.24,55.75 42.26,51.75 46.25,55.72 42.25,55.75"/>
    </edge>
    <edge id=":node3_w4" function="walkingarea">
        <lane id=":node3_w4_0" index="0" allow="pedestrian" speed="1.00" length="3.09" width="4.00" shape="29.35,55.92 25.35,55.98 29.46,51.69 29.44,55.69"/>
    </edge>
    <edge id=":node4_0" function="internal">
        <lane id=":node4_0_0" index="0" speed="50.00" length="21.59" shape="155.25,50.27 155.48,71.99"/>
        <lane id=":node4_0_1" index="1" speed="50.00" length="21.59" shape="152.05,50.44 152.28,71.90"/>
    </edge>
    <edge id=":node4_2" function="internal">
        <lane id=":node4_2_0" index="0" speed="9.19" length="7.58" shape="152.05,50.44 151.56,55.84 150.53,57.73"/>
    </edge>
    <edge id=":node4_8" function="internal">
        <lane id=":node4_8_0" index="0" speed="9.19" length="12.11" shape="150.53,57.73 149.45,59.72 145.71,62.07 140.34,62.88"/>
    </edge>
    <edge id=":node4_3" function="internal">
        <lane id=":node4_3_0" index="0" speed="6.41" length="4.74" shape="140.29,56.48 142.75,56.11 144.46,55.03 144.57,54.83"/>
    </edge>
    <edge id=":node4_4" function="internal">
        <lane id=":node4_4_0" index="0" speed="9.20" length="15.63" shape="140.31,59.68 145.69,60.41 149.48,62.68 151.67,66.51 151.83,67.88"/>
    </edge>
    <edge id=":node4_9" function="internal">
        <lane id=":node4_9_0" index="0" speed="6.41" length="4.29" shape="144.57,54.83 145.44,53.25 145.66,50.77"/>
    </edge>
    <edge id=":node4_10" function="internal">
        <lane id=":node4_10_0" index="0" speed="9.20" length="4.04" shape="151.83,67.88 152.28,71.90"/>
    </edge>
    <edge id=":node4_5" function="internal">
        <lane id=":node4_5_0" index="0" speed="6.43" length="4.76" shape="145.88,71.70 145.60,69.22 144.59,67.46 144.38,67.34"/>
    </edge>
    <edge id=":node4_6" function="internal">
        <lane id=":node4_6_0" index="0" speed="50.00" length="21.06" shape="145.88,71.70 145.66,50.77"/>
        <lane id=":node4_6_1" index="1" speed="50.00" length="21.06" shape="149.08,71.80 148.86,50.60"/>
    </edge>
    <edge id=":node4_11" function="internal">
        <lane id=":node4_11_0" index="0" speed="6.43" length="4.29" shape="144.38,67.34 142.85,66.42 140.37,66.08"/>
    </edge>
    <edge id=":node4_c0" function="crossing" crossingEdges="4to6 6to4">
        <lane id=":node4_c0_0" index="0" allow="pedestrian" speed="1.00" length="12.80" width="4.00" shape="144.17,52.85 156.95,52.19"/>
    </edge>
    <edge id=":node4_c1" function="crossing" crossingEdges="4to3 3to4">
        <lane id=":node4_c1_0" index="0" allow="pedestrian" speed="1.00" length="12.80" width="4.00" shape="142.38,67.67 142.27,54.87"/>
    </edge>
    <edge id=":node4_c2" function="crossing" crossingEdges="4to7 7to4">
        <lane id=":node4_c2_0" index="0" allow="pedestrian" speed="1.00" length="12.80" width="4.00" shape="157.14,70.05 144.34,69.65"/>
    </edge>
    <edge id=":node4_w0" function="walkingarea">
        <lane id=":node4_w0_0" index="0" allow="pedestrian" speed="1.00" length="16.15" width="3.20" shape="156.85,50.19 153.65,50.36 153.65,50.36 150.45,50.52 150.45,50.52 147.26,50.69 147.26,50.69 144.06,50.85 140.27,54.88 140.30,58.08 140.30,58.08 140.33,61.28 140.33,61.28 140.36,64.48 140.36,64.48 140.38,67.68 144.28,71.65 147.48,71.75 147.48,71.75 150.68,71.85 150.68,71.85 153.88,71.95 153.88,71.95 157.08,72.04"/>
    </edge>
    <edge id=":node4_w1" function="walkingarea">
        <lane id=":node4_w1_0" index="0" allow="pedestrian" speed="1.00" length="17.86" width="4.00" shape="157.05,54.18 156.85,50.19 157.08,72.04 157.20,68.05"/>
    </edge>
    <edge id=":node4_w2" function="walkingarea">
        <lane id=":node4_w2_0" index="0" allow="pedestrian" speed="1.00" length="2.77" width="4.00" shape="144.27,54.85 140.27,54.88 144.06,50.85 144.27,54.85"/>
    </edge>
    <edge id=":node4_w3" function="walkingarea">
        <lane id=":node4_w3_0" index="0" allow="pedestrian" speed="1.00" length="2.79" width="4.00" shape="144.41,67.65 144.28,71.65 140.38,67.68 144.38,67.65"/>
    </edge>
    <edge id=":node5_w0" function="walkingarea">
        <lane id=":node5_w0_0" index="0" allow="pedestrian" speed="1.00" length="9.60" width="3.20" shape="37.57,137.66 34.37,137.73 34.37,137.73 31.17,137.81 43.97,137.51 40.77,137.59 40.77,137.59 37.57,137.66"/>
    </edge>
    <edge id=":node6_w0" function="walkingarea">
        <lane id=":node6_w0_0" index="0" allow="pedestrian" speed="1.00" length="9.60" width="3.20" shape="146.78,-19.95 149.98,-20.12 149.98,-20.12 153.17,-20.28 140.39,-19.62 143.58,-19.78 143.58,-19.78 146.78,-19.95"/>
    </edge>
    <edge id=":node7_w0" function="walkingarea">
        <lane id=":node7_w0_0" index="0" allow="pedestrian" speed="1.00" length="9.60" width="3.20" shape="148.64,137.42 145.44,137.32 145.44,137.32 142.24,137.22 155.04,137.62 151.84,137.52 151.84,137.52 148.64,137.42"/>
    </edge>

    <edge id="1to3" from="node1" to="node3" priority="-1" length="100.00">
        <lane id="1to3_0" index="0" speed="50.00" length="100.00" shape="41.03,-21.12 40.66,51.74"/>
        <lane id="1to3_1" index="1" speed="50.00" length="100.00" shape="37.83,-21.13 37.46,51.73"/>
    </edge>
    <edge id="2to3" from="node2" to="node3" priority="-1" length="100.00">
        <lane id="2to3_0" index="0" speed="50.00" length="100.00" shape="-55.98,58.92 25.38,57.58"/>
        <lane id="2to3_1" index="1" speed="50.00" length="100.00" shape="-55.93,62.12 25.43,60.78"/>
    </edge>
    <edge id="3to1" from="node3" to="node1" priority="-1" length="100.00">
        <lane id="3to1_0" index="0" speed="50.00" length="100.00" shape="31.06,51.70 31.43,-21.16"/>
        <lane id="3to1_1" index="1" speed="50.00" length="100.00" shape="34.26,51.71 34.63,-21.15"/>
    </edge>
    <edge id="3to2" from="node3" to="node2" priority="-1" length="100.00">
        <lane id="3to2_0" index="0" speed="50.00" length="100.00" shape="25.53,67.18 -55.82,68.52"/>
        <lane id="3to2_1" index="1" speed="50.00" length="100.00" shape="25.48,63.98 -55.87,65.32"/>
    </edge>
    <edge id="3to4" from="node3" to="node4" priority="-1" length="100.00">
        <lane id="3to4_0" index="0" speed="50.00" length="100.00" shape="46.26,57.32 140.29,56.48"/>
        <lane id="3to4_1" index="1" speed="50.00" length="100.00" shape="46.29,60.52 140.31,59.68"/>
    </edge>
    <edge id="3to5" from="node3" to="node5" priority="-1" length="100.00">
        <lane id="3to5_0" index="0" speed="50.00" length="100.00" shape="40.85,72.59 42.37,137.55"/>
        <lane id="3to5_1" index="1" speed="50.00" length="100.00" shape="37.65,72.66 39.17,137.62"/>
    </edge>
    <edge id="4to3" from="node4" to="node3" priority="-1" length="100.00">
        <lane id="4to3_0" index="0" speed="50.00" length="100.00" shape="140.37,66.08 46.35,66.92"/>
        <lane id="4to3_1" index="1" speed="50.00" length="100.00" shape="140.34,62.88 46.32,63.72"/>
    </edge>
    <edge id="4to6" from="node4" to="node6" priority="-1" length="100.00">
        <lane id="4to6_0" index="0" speed="50.00" length="100.00" shape="145.66,50.77 141.99,-19.70"/>
        <lane id="4to6_1" index="1" speed="50.00" length="100.00" shape="148.86,50.60 145.18,-19.87"/>
    </edge>
    <edge id="4to7" from="node4" to="node7" priority="-1" length="100.00">
        <lane id="4to7_0" index="0" speed="50.00" length="100.00" shape="155.48,71.99 153.44,137.57"/>
        <lane id="4to7_1" index="1" speed="50.00" length="100.00" shape="152.28,71.90 150.24,137.47"/>
    </edge>
    <edge id="5to3" from="node5" to="node3" priority="-1" length="100.00">
        <lane id="5to3_0" index="0" speed="50.00" length="100.00" shape="32.77,137.77 31.26,72.81"/>
        <lane id="5to3_1" index="1" speed="50.00" length="100.00" shape="35.97,137.70 34.46,72.74"/>
    </edge>
    <edge id="6to4" from="node6" to="node4" priority="-1" length="100.00">
        <lane id="6to4_0" index="0" speed="50.00" length="100.00" shape="151.57,-20.20 155.25,50.27"/>
        <lane id="6to4_1" index="1" speed="50.00" length="100.00" shape="148.38,-20.03 152.05,50.44"/>
    </edge>
    <edge id="7to4" from="node7" to="node4" priority="-1" length="100.00">
        <lane id="7to4_0" index="0" speed="50.00" length="100.00" shape="143.84,137.27 145.88,71.70"/>
        <lane id="7to4_1" index="1" speed="50.00" length="100.00" shape="147.04,137.37 149.08,71.80"/>
    </edge>

    <tlLogic id="node3" type="static" programID="6" offset="0">
        <phase duration="37" state="rrrrgGGgrrrrgGGgGrGr"/>
        <phase duration="5"  state="rrrrgGGgrrrrgGGgrrrr"/>
        <phase duration="3"  state="rrrryyyyrrrryyyyrrrr"/>
        <phase duration="37" state="gGGgrrrrgGGgrrrrrGrG"/>
        <phase duration="5"  state="gGGgrrrrgGGgrrrrrrrr"/>
        <phase duration="3"  state="yyyyrrrryyyyrrrrrrrr"/>
    </tlLogic>
    <tlLogic id="node4" type="static" programID="0" offset="0">
        <phase duration="37" state="GGgrrgGGrGr"/>
        <phase duration="5"  state="GGgrrgGGrrr"/>
        <phase duration="3"  state="yyyrryyyrrr"/>
        <phase duration="37" state="rrrggrrrGrG"/>
        <phase duration="5"  state="rrrggrrrrrr"/>
        <phase duration="3"  state="rrryyrrrrrr"/>
    </tlLogic>

    <junction id="node1" type="dead_end" x="36.23" y="-21.14" incLanes="3to1_0 3to1_1" intLanes="" shape="36.23,-21.14 29.83,-21.17 36.23,-21.14"/>
    <junction id="node2" type="dead_end" x="-55.90" y="63.72" incLanes="3to2_0 3to2_1" intLanes="" shape="-55.90,63.72 -55.79,70.12 -55.90,63.72"/>
    <junction id="node3" type="traffic_light" x="35.81" y="62.21" incLanes="5to3_0 5to3_1 4to3_0 4to3_1 1to3_0 1to3_1 2to3_0 2to3_1 :node3_w2_0 :node3_w3_0 :node3_w4_0 :node3_w1_0" intLanes=":node3_16_0 :node3_1_0 :node3_1_1 :node3_17_0 :node3_18_0 :node3_5_0 :node3_5_1 :node3_19_0 :node3_20_0 :node3_9_0 :node3_9_1 :node3_21_0 :node3_22_0 :node3_13_0 :node3_13_1 :node3_23_0 :node3_c0_0 :node3_c1_0 :node3_c2_0 :node3_c3_0" shape="29.66,72.85 42.45,72.55 42.85,70.33 43.38,69.54 44.15,68.98 45.14,68.64 46.36,68.52 46.25,55.72 44.02,55.29 43.25,54.74 42.70,53.97 42.37,52.97 42.26,51.75 29.46,51.69 29.00,54.04 28.42,54.87 27.63,55.47 26.60,55.84 25.35,55.98 25.56,68.78 27.79,69.20 28.58,69.76 29.16,70.56 29.52,71.59">
        <request index="0"  response="10010000000001100000" foes="10010000000001100000" cont="1"/>
        <request index="1"  response="01011111000011100000" foes="01011111100011100000" cont="0"/>
        <request index="2"  response="01011111000011100000" foes="01011111100011100000" cont="0"/>
        <request index="3"  response="00111110011011100000" foes="00111110011011100000" cont="1"/>
        <request index="4"  response="00110000000000000000" foes="00110000011000000000" cont="1"/>
        <request index="5"  response="10100000100000001001" foes="10101000111000001111" cont="0"/>
        <request index="6"  response="10100000100000001001" foes="10101000111000001111" cont="0"/>
        <request index="7"  response="01100110100000001000" foes="01100110111000001110" cont="1"/>
        <request index="8"  response="01100110000000000000" foes="01100110000000000000" cont="1"/>
        <request index="9"  response="01011110000011110000" foes="01011110000011111000" cont="0"/>
        <request index="10" response="01011110000011110000" foes="01011110000011111000" cont="0"/>
        <request index="11" response="11001110000011100110" foes="11001110000011100110" cont="1"/>
        <request index="12" response="11000000000000000000" foes="11000000000000000110" cont="1"/>
        <request index="13" response="10100000100100001000" foes="10100000111110001110" cont="0"/>
        <request index="14" response="10100000100100001000" foes="10100000111110001110" cont="0"/>
        <request index="15" response="10010000100001101000" foes="10010000111001101110" cont="1"/>
        <request index="16" response="00000000000000000000" foes="00001000011000011111" cont="0"/>
        <request index="17" response="00000000000000000000" foes="00000110000111111000" cont="0"/>
        <request index="18" response="00000000000000000000" foes="00000001111110000110" cont="0"/>
        <request index="19" response="00000000000000000000" foes="00001111100001100001" cont="0"/>
    </junction>
    <junction id="node4" type="traffic_light" x="151.01" y="61.19" incLanes="6to4_0 6to4_1 3to4_0 3to4_1 7to4_0 7to4_1 :node4_w2_0 :node4_w3_0 :node4_w1_0" intLanes=":node4_0_0 :node4_0_1 :node4_8_0 :node4_9_0 :node4_10_0 :node4_11_0 :node4_6_0 :node4_6_1 :node4_c0_0 :node4_c1_0 :node4_c2_0" shape="156.85,50.19 144.06,50.85 143.73,53.08 143.22,53.86 142.47,54.42 141.49,54.76 140.27,54.88 140.38,67.68 142.60,68.11 143.37,68.66 143.90,69.43 144.21,70.43 144.28,71.65 157.08,72.04">
        <request index="0"  response="10100010000" foes="10100010000" cont="0"/>
        <request index="1"  response="10100010000" foes="10100010000" cont="0"/>
        <request index="2"  response="01111010000" foes="01111010000" cont="1"/>
        <request index="3"  response="01111000000" foes="01111000000" cont="1"/>
        <request index="4"  response="11011000111" foes="11011000111" cont="1"/>
        <request index="5"  response="11000000000" foes="11000000000" cont="1"/>
        <request index="6"  response="10100011000" foes="10100011100" cont="0"/>
        <request index="7"  response="10100011000" foes="10100011100" cont="0"/>
        <request index="8"  response="00000000000" foes="00011001111" cont="0"/>
        <request index="9"  response="00000000000" foes="00000111100" cont="0"/>
        <request index="10" response="00000000000" foes="00011110011" cont="0"/>
    </junction>
    <junction id="node5" type="dead_end" x="37.57" y="137.66" incLanes="3to5_0 3to5_1" intLanes="" shape="37.57,137.66 43.97,137.51 37.57,137.66"/>
    <junction id="node6" type="dead_end" x="146.78" y="-19.95" incLanes="4to6_0 4to6_1" intLanes="" shape="146.78,-19.95 140.39,-19.62 146.78,-19.95"/>
    <junction id="node7" type="dead_end" x="148.64" y="137.42" incLanes="4to7_0 4to7_1" intLanes="" shape="148.64,137.42 155.04,137.62 148.64,137.42"/>

    <junction id=":node3_16_0" type="internal" x="29.56" y="68.42" incLanes=":node3_0_0" intLanes=":node3_5_0 :node3_5_1 :node3_11_0 :node3_c0_0 :node3_c3_0"/>
    <junction id=":node3_17_0" type="internal" x="35.99" y="65.86" incLanes=":node3_3_0 1to3_0 1to3_1" intLanes=":node3_5_0 :node3_5_1 :node3_7_0 :node3_8_0 :node3_9_0 :node3_9_1 :node3_13_0 :node3_13_1 :node3_15_0 :node3_c0_0 :node3_c1_0"/>
    <junction id=":node3_18_0" type="internal" x="42.05" y="68.56" incLanes=":node3_4_0" intLanes=":node3_9_0 :node3_9_1 :node3_15_0 :node3_c0_0 :node3_c1_0"/>
    <junction id=":node3_19_0" type="internal" x="39.66" y="62.20" incLanes=":node3_7_0 2to3_0 2to3_1" intLanes=":node3_1_0 :node3_1_1 :node3_3_0 :node3_9_0 :node3_9_1 :node3_11_0 :node3_12_0 :node3_13_0 :node3_13_1 :node3_c1_0 :node3_c2_0"/>
    <junction id=":node3_20_0" type="internal" x="42.25" y="56.07" incLanes=":node3_8_0" intLanes=":node3_3_0 :node3_13_0 :node3_13_1 :node3_c1_0 :node3_c2_0"/>
    <junction id=":node3_21_0" type="internal" x="35.92" y="58.31" incLanes=":node3_11_0 5to3_0 5to3_1" intLanes=":node3_0_0 :node3_1_0 :node3_1_1 :node3_5_0 :node3_5_1 :node3_7_0 :node3_13_0 :node3_13_1 :node3_15_0 :node3_c2_0 :node3_c3_0"/>
    <junction id=":node3_22_0" type="internal" x="29.85" y="55.69" incLanes=":node3_12_0" intLanes=":node3_1_0 :node3_1_1 :node3_7_0 :node3_c2_0 :node3_c3_0"/>
    <junction id=":node3_23_0" type="internal" x="32.13" y="62.30" incLanes=":node3_15_0 4to3_0 4to3_1" intLanes=":node3_1_0 :node3_1_1 :node3_3_0 :node3_4_0 :node3_5_0 :node3_5_1 :node3_9_0 :node3_9_1 :node3_11_0 :node3_c0_0 :node3_c3_0"/>
    <junction id=":node4_8_0" type="internal" x="150.53" y="57.73" incLanes=":node4_2_0 7to4_0 7to4_1" intLanes=":node4_4_0 :node4_6_0 :node4_6_1 :node4_c0_0 :node4_c1_0"/>
    <junction id=":node4_9_0" type="internal" x="144.57" y="54.83" incLanes=":node4_3_0" intLanes=":node4_6_0 :node4_6_1 :node4_c0_0 :node4_c1_0"/>
    <junction id=":node4_10_0" type="internal" x="151.83" y="67.88" incLanes=":node4_4_0" intLanes=":node4_0_0 :node4_0_1 :node4_2_0 :node4_6_0 :node4_6_1 :node4_c1_0 :node4_c2_0"/>
    <junction id=":node4_11_0" type="internal" x="144.38" y="67.34" incLanes=":node4_5_0" intLanes=":node4_c1_0 :node4_c2_0"/>

    <connection from="1to3" to="3to4" fromLane="0" toLane="0" via=":node3_8_0" tl="node3" linkIndex="8" dir="r" state="o"/>
    <connection from="1to3" to="3to5" fromLane="0" toLane="0" via=":node3_9_0" tl="node3" linkIndex="9" dir="s" state="o"/>
    <connection from="1to3" to="3to5" fromLane="1" toLane="1" via=":node3_9_1" tl="node3" linkIndex="10" dir="s" state="o"/>
    <connection from="1to3" to="3to2" fromLane="1" toLane="1" via=":node3_11_0" tl="node3" linkIndex="11" dir="l" state="o"/>
    <connection from="2to3" to="3to1" fromLane="0" toLane="0" via=":node3_12_0" tl="node3" linkIndex="12" dir="r" state="o"/>
    <connection from="2to3" to="3to4" fromLane="0" toLane="0" via=":node3_13_0" tl="node3" linkIndex="13" dir="s" state="o"/>
    <connection from="2to3" to="3to4" fromLane="1" toLane="1" via=":node3_13_1" tl="node3" linkIndex="14" dir="s" state="o"/>
    <connection from="2to3" to="3to5" fromLane="1" toLane="1" via=":node3_15_0" tl="node3" linkIndex="15" dir="l" state="o"/>
    <connection from="3to4" to="4to6" fromLane="0" toLane="0" via=":node4_3_0" tl="node4" linkIndex="3" dir="r" state="o"/>
    <connection from="3to4" to="4to7" fromLane="1" toLane="1" via=":node4_4_0" tl="node4" linkIndex="4" dir="l" state="o"/>
    <connection from="4to3" to="3to5" fromLane="0" toLane="0" via=":node3_4_0" tl="node3" linkIndex="4" dir="r" state="o"/>
    <connection from="4to3" to="3to2" fromLane="0" toLane="0" via=":node3_5_0" tl="node3" linkIndex="5" dir="s" state="o"/>
    <connection from="4to3" to="3to2" fromLane="1" toLane="1" via=":node3_5_1" tl="node3" linkIndex="6" dir="s" state="o"/>
    <connection from="4to3" to="3to1" fromLane="1" toLane="1" via=":node3_7_0" tl="node3" linkIndex="7" dir="l" state="o"/>
    <connection from="5to3" to="3to2" fromLane="0" toLane="0" via=":node3_0_0" tl="node3" linkIndex="0" dir="r" state="o"/>
    <connection from="5to3" to="3to1" fromLane="0" toLane="0" via=":node3_1_0" tl="node3" linkIndex="1" dir="s" state="o"/>
    <connection from="5to3" to="3to1" fromLane="1" toLane="1" via=":node3_1_1" tl="node3" linkIndex="2" dir="s" state="o"/>
    <connection from="5to3" to="3to4" fromLane="1" toLane="1" via=":node3_3_0" tl="node3" linkIndex="3" dir="l" state="o"/>
    <connection from="6to4" to="4to7" fromLane="0" toLane="0" via=":node4_0_0" tl="node4" linkIndex="0" dir="s" state="o"/>
    <connection from="6to4" to="4to7" fromLane="1" toLane="1" via=":node4_0_1" tl="node4" linkIndex="1" dir="s" state="o"/>
    <connection from="6to4" to="4to3" fromLane="1" toLane="1" via=":node4_2_0" tl="node4" linkIndex="2" dir="l" state="o"/>
    <connection from="7to4" to="4to3" fromLane="0" toLane="0" via=":node4_5_0" tl="node4" linkIndex="5" dir="r" state="o"/>
    <connection from="7to4" to="4to6" fromLane="0" toLane="0" via=":node4_6_0" tl="node4" linkIndex="6" dir="s" state="o"/>
    <connection from="7to4" to="4to6" fromLane="1" toLane="1" via=":node4_6_1" tl="node4" linkIndex="7" dir="s" state="o"/>

    <connection from=":node3_0" to="3to2" fromLane="0" toLane="0" via=":node3_16_0" dir="r" state="m"/>
    <connection from=":node3_16" to="3to2" fromLane="0" toLane="0" dir="r" state="M"/>
    <connection from=":node3_1" to="3to1" fromLane="0" toLane="0" dir="s" state="M"/>
    <connection from=":node3_1" to="3to1" fromLane="1" toLane="1" dir="s" state="M"/>
    <connection from=":node3_3" to="3to4" fromLane="0" toLane="1" via=":node3_17_0" dir="l" state="m"/>
    <connection from=":node3_17" to="3to4" fromLane="0" toLane="1" dir="l" state="M"/>
    <connection from=":node3_4" to="3to5" fromLane="0" toLane="0" via=":node3_18_0" dir="r" state="m"/>
    <connection from=":node3_18" to="3to5" fromLane="0" toLane="0" dir="r" state="M"/>
    <connection from=":node3_5" to="3to2" fromLane="0" toLane="0" dir="s" state="M"/>
    <connection from=":node3_5" to="3to2" fromLane="1" toLane="1" dir="s" state="M"/>
    <connection from=":node3_7" to="3to1" fromLane="0" toLane="1" via=":node3_19_0" dir="l" state="m"/>
    <connection from=":node3_19" to="3to1" fromLane="0" toLane="1" dir="l" state="M"/>
    <connection from=":node3_8" to="3to4" fromLane="0" toLane="0" via=":node3_20_0" dir="r" state="m"/>
    <connection from=":node3_20" to="3to4" fromLane="0" toLane="0" dir="r" state="M"/>
    <connection from=":node3_9" to="3to5" fromLane="0" toLane="0" dir="s" state="M"/>
    <connection from=":node3_9" to="3to5" fromLane="1" toLane="1" dir="s" state="M"/>
    <connection from=":node3_11" to="3to2" fromLane="0" toLane="1" via=":node3_21_0" dir="l" state="m"/>
    <connection from=":node3_21" to="3to2" fromLane="0" toLane="1" dir="l" state="M"/>
    <connection from=":node3_12" to="3to1" fromLane="0" toLane="0" via=":node3_22_0" dir="r" state="m"/>
    <connection from=":node3_22" to="3to1" fromLane="0" toLane="0" dir="r" state="M"/>
    <connection from=":node3_13" to="3to4" fromLane="0" toLane="0" dir="s" state="M"/>
    <connection from=":node3_13" to="3to4" fromLane="1" toLane="1" dir="s" state="M"/>
    <connection from=":node3_15" to="3to5" fromLane="0" toLane="1" via=":node3_23_0" dir="l" state="m"/>
    <connection from=":node3_23" to="3to5" fromLane="0" toLane="1" dir="l" state="M"/>
    <connection from=":node4_0" to="4to7" fromLane="0" toLane="0" dir="s" state="M"/>
    <connection from=":node4_0" to="4to7" fromLane="1" toLane="1" dir="s" state="M"/>
    <connection from=":node4_2" to="4to3" fromLane="0" toLane="1" via=":node4_8_0" dir="l" state="m"/>
    <connection from=":node4_8" to="4to3" fromLane="0" toLane="1" dir="l" state="M"/>
    <connection from=":node4_3" to="4to6" fromLane="0" toLane="0" via=":node4_9_0" dir="r" state="m"/>