<routes>
     <!--<person id="331" depart="0.00" color="0,1,0" departPos="70">-->
        <!--<walk edges="5to3 3to5 :node5_w0 :node3_w0 :node3_c0 :node3_w0 :node3_c1 1to3 :node3_w0 3to1 4to3 3to4"/>-->
    <!--</person>-->
     <person id="331" depart="0.00" color="0,1,0" departPos="80">
        <walk edges="5to3 3to5 :node5_w0 :node3_w0 :node3_c0 1to3 :node3_w0 3to1 :node3_w0 4to3 3to4"/>
         <!--<walk from="5to3" busStop="busStop6"/>-->
         <!--<ride busStop="busStop6" lines="102"/>-->
    </person>

    <person id="5" depart="0.00" jmDriveAfterRedTime="0" color="0,1,1" guiShape ="pedestrian">
        <walk from="5to3" to="3to4"/>
    </person>
    <person id="5.1" depart="0.00" jmDriveAfterRedTime="0" color="0,1,1" guiShape ="pedestrian">
        <walk from="5to3" to="3to4"/>
    </person>
    <person id="5.2" depart="0.00" jmDriveAfterRedTime="0" color="0,1,1" guiShape ="pedestrian">
        <walk from="5to3" to="3to4"/>
    </person>
    <person id="5.3" depart="0.00" jmDriveAfterRedTime="0" color="0,1,1" guiShape ="pedestrian">
        <walk from="5to3" to="3to4"/>
    </person>
    <person id="5.4" depart="0.00" jmDriveAfterRedTime="0" color="0,1,1" guiShape ="pedestrian">
        <walk from="5to3" to="3to4"/>
    </person>
    <person id="5.5" depart="0.00" jmDriveAfterRedTime="0" color="0,1,1" guiShape ="pedestrian">
        <walk from="5to3" to="3to4"/>
    </person>
    <person id="5.6" depart="0.00" jmDriveAfterRedTime="0" color="0,1,1" guiShape ="pedestrian">
        <walk from="5to3" to="3to4"/>
    </person>
    <person id="5.7" depart="0.00" jmDriveAfterRedTime="0" color="0,1,1" guiShape ="pedestrian">
        <walk from="5to3" to="3to4"/>
    </person>
        <person id="5.8" depart="0.00" jmDriveAfterRedTime="0" color="0,1,1" guiShape ="pedestrian">
        <walk from="5to3" to="3to4"/>
    </person>
    <person id="5.9" depart="0.00" jmDriveAfterRedTime="0" color="0,1,1" guiShape ="pedestrian">
        <walk from="5to3" to="3to4"/>
    </person>
    <person id="5.10" depart="0.00" jmDriveAfterRedTime="0" color="0,1,1" guiShape ="pedestrian">
        <walk from="5to3" to="3to4"/>
    </person>



    <person id="0" depart="0.00" jmDriveAfterRedTime="0" color="1,0,0" guiShape ="pedestrian">
        <walk from="2to3" busStop="busStop0"/>
        <ride from="2to3" to="3to4" lines="101"/>
        <!-- <walk from="3to4" departPos="80" to="4to6"/> -->
        <walk from="3to4" to="4to7" arrivalpos="40"/>
        <stop lane="4to7_0" duration="10" startPos="50" actType="singing"/>
        <ride from="4to7" busStop="busStop10" lines="101"/>
    </person>
    <person id="0.0" depart="0.00" jmDriveAfterRedTime="0" color="1,0,0" guiShape ="pedestrian">
        <walk from="2to3" busStop="busStop0"/>
        <ride from="2to3" to="3to4" lines="101"/>
        <!-- <walk from="3to4" departPos="80" to="4to6"/> -->
        <walk from="3to4" to="4to7" arrivalpos="40"/>
        <stop lane="4to7_0" duration="10" startPos="50" actType="singing"/>
        <ride from="4to7" busStop="busStop10" lines="101"/>
    </person>
    <person id="0.1" depart="0.00" jmDriveAfterRedTime="0" color="1,0,0" guiShape ="pedestrian">
        <walk from="2to3" busStop="busStop0"/>
        <ride from="2to3" to="3to4" lines="101"/>
        <!-- <walk from="3to4" departPos="80" to="4to6"/> -->
        <walk from="3to4" to="4to7" arrivalpos="40"/>
        <stop lane="4to7_0" duration="10" startPos="50" actType="singing"/>
        <ride from="4to7" busStop="busStop10" lines="101"/>
    </person>



    <person id="1" depart="0.00" color="0,1,0" guiShape ="pedestrian">
        <ride from="2to3" to="3to4" lines="taxi"/>
        <walk from="3to4" busStop="busStop4"/>
        <ride busStop="busStop4" lines="101"/>
    </person>

    <person id="4" depart="0.00" jmDriveAfterRedTime="0" guiShape ="pedestrian" color="1,0,0">
        <walk from="3to1" busStop="busStop3"/>
        <ride busStop="busStop3" lines="103"/>
    </person>
    <person id="4.1" depart="0.00" jmDriveAfterRedTime="0" guiShape ="pedestrian" color="1,0,0">
        <walk from="1to3" busStop="busStop3"/>
        <ride busStop="busStop3" lines="103"/>
    </person>


    <person id="2" depart="10.00" jmDriveAfterRedTime="0" guiShape ="pedestrian">
        <walk from="2to3" busStop="busStop0"/>
        <ride busStop="busStop0" lines="101"/>
    </person>
    <person id="2.0" depart="10.00" jmDriveAfterRedTime="0" guiShape ="pedestrian">
        <walk from="2to3" busStop="busStop0"/>
        <ride busStop="busStop0" lines="101"/>
    </person>
    <person id="2.1" depart="10.00" jmDriveAfterRedTime="0" guiShape ="pedestrian">
        <walk from="2to3" busStop="busStop0"/>
        <ride busStop="busStop0" lines="101"/>
    </person>
    <person id="2.2" depart="10.00" jmDriveAfterRedTime="0" guiShape ="pedestrian">
        <walk from="2to3" busStop="busStop0"/>
        <ride busStop="busStop0" lines="101"/>
    </person>
    <person id="2.3" depart="10.00" jmDriveAfterRedTime="0" guiShape ="pedestrian">
        <walk from="2to3" busStop="busStop0"/>
        <ride busStop="busStop0" lines="101"/>
    </person>
    <person id="2.4" depart="10.00" jmDriveAfterRedTime="0" guiShape ="pedestrian">
        <walk from="2to3" busStop="busStop0"/>
        <ride busStop="busStop0" lines="101"/>
    </person>
    <person id="2.5" depart="10.00" jmDriveAfterRedTime="0" guiShape ="pedestrian">
        <walk from="2to3" busStop="busStop0"/>
        <ride busStop="busStop0" lines="101"/>
    </person>
    <person id="2.6" depart="10.00" jmDriveAfterRedTime="0" guiShape ="pedestrian">
        <walk from="2to3" busStop="busStop0"/>
        <ride busStop="busStop0" lines="101"/>
    </person>
    <person id="2.7" depart="10.00" jmDriveAfterRedTime="0" guiShape ="pedestrian">
        <walk from="2to3" busStop="busStop0"/>
        <ride busStop="busStop0" lines="101"/>
    </person>
    <person id="2.8" depart="10.00" jmDriveAfterRedTime="0" guiShape ="pedestrian">
        <walk from="2to3" busStop="busStop0"/>
        <ride busStop="busStop0" lines="101"/>
    </person>
    <person id="2.9" depart="10.00" jmDriveAfterRedTime="0" guiShape ="pedestrian">
        <walk from="2to3" busStop="busStop0"/>
        <ride busStop="busStop0" lines="101"/>
    </person>
    <person id="2.10" depart="10.00" jmDriveAfterRedTime="0" guiShape ="pedestrian">
        <walk from="2to3" busStop="busStop0"/>
        <ride busStop="busStop0" lines="101"/>
    </person>



    <person id="3" depart="10.00" jmDriveAfterRedTime="0" guiShape ="pedestrian" color="1,1,1">
        <walk from="5to3" busStop="busStop6"/>
        <ride busStop="busStop6" lines="102"/>
    </person>
    <person id="3.0" depart="10.00" jmDriveAfterRedTime="0" guiShape ="pedestrian" color="1,1,1">
        <walk from="5to3" busStop="busStop6"/>
        <ride busStop="busStop6" lines="102"/>
    </person>
    <person id="3.1" depart="10.00" jmDriveAfterRedTime="0" guiShape ="pedestrian" color="1,0,0">
        <walk from="5to3" busStop="busStop6"/>
        <ride busStop="busStop6" lines="102"/>
    </person>




      <person id="4.2" depart="20.00" jmDriveAfterRedTime="0" guiShape ="pedestrian" color="1,0,0">
        <walk from="1to3" busStop="busStop3"/>
        <ride busStop="busStop3" lines="103"/>
    </person>
      <person id="4.3" depart="20.00" jmDriveAfterRedTime="0" guiShape ="pedestrian" color="1,0,0">
        <walk from="1to3" busStop="busStop3"/>
        <ride busStop="busStop3" lines="103"/>
    </person>
      <person id="4.4" depart="20.00" jmDriveAfterRedTime="0" guiShape ="pedestrian" color="1,0,0">
        <walk from="1to3" busStop="busStop3"/>
        <ride busStop="busStop3" lines="103"/>
    </person>
      <person id="4.5" depart="20.00" jmDriveAfterRedTime="0" guiShape ="pedestrian" color="1,0,0">
        <walk from="1to3" busStop="busStop3"/>
        <ride busStop="busStop3" lines="103"/>
    </person>

    <!--<person id="p.0" depart="0.00">-->
        <!--<walk edges="5to3 3to1"/>-->
    <!--</person>-->
    <!--<person id="p1.0" depart="0.00">-->
        <!--<walk edges="2to3 3to4"/>-->
    <!--</person>-->
    <!--<person id="p2.0" depart="0.00">-->
        <!--<walk edges="7to4 4to6"/>-->
    <!--</person>-->
    <!--<person id="p.1" depart="1.00">-->
        <!--<walk edges="5to3 3to1"/>-->
    <!--</person>-->
    <!--<person id="p1.1" depart="1.00">-->
        <!--<walk edges="2to3 3to4"/>-->
    <!--</person>-->
    <!--<person id="p2.1" depart="1.00">-->
        <!--<walk edges="7to4 4to6"/>-->
    <!--</person>-->
    <!--<person id="p.2" depart="2.00">-->
        <!--<walk edges="5to3 3to1"/>-->
    <!--</person>-->
    <!--<person id="p1.2" depart="2.00">-->
        <!--<walk edges="2to3 3to4"/>-->
    <!--</person>-->
    <!--<person id="p2.2" depart="2.00">-->
        <!--<walk edges="7to4 4to6"/>-->
    <!--</person>-->
    <!--<person id="p.3" depart="3.00">-->
        <!--<walk edges="5to3 3to1"/>-->
    <!--</person>-->
    <!--<person id="p1.3" depart="3.00">-->
        <!--<walk edges="2to3 3to4"/>-->
    <!--</person>-->
    <!--<person id="p2.3" depart="3.00">-->
        <!--<walk edges="7to4 4to6"/>-->
    <!--</person>-->
    <!--<person id="p.4" depart="4.00">-->
        <!--<walk edges="5to3 3to1"/>-->
    <!--</person>-->
    <!--<person id="p1.4" depart="4.00">-->
        <!--<walk edges="2to3 3to4"/>-->
    <!--</person>-->
    <!--<person id="p2.4" depart="4.00">-->
        <!--<walk edges="7to4 4to6"/>-->
    <!--</person>-->
    <!--<person id="p.5" depart="5.00">-->
        <!--<walk edges="5to3 3to1"/>-->
    <!--</person>-->
    <!--<person id="p1.5" depart="5.00">-->
        <!--<walk edges="2to3 3to4"/>-->
    <!--</person>-->
    <!--<person id="p2.5" depart="5.00">-->
        <!--<walk edges="7to4 4to6"/>-->
    <!--</person>-->
    <!--<person id="p.6" depart="6.00">-->
        <!--<walk edges="5to3 3to1"/>-->
    <!--</person>-->
    <!--<person id="p1.6" depart="6.00">-->
        <!--<walk edges="2to3 3to4"/>-->
    <!--</person>-->
    <!--<person id="p2.6" depart="6.00">-->
        <!--<walk edges="7to4 4to6"/>-->
    <!--</person>-->
    <!--<person id="p.7" depart="7.00">-->
        <!--<walk edges="5to3 3to1"/>-->
    <!--</person>-->
    <!--<person id="p1.7" depart="7.00">-->
        <!--<walk edges="2to3 3to4"/>-->
    <!--</person>-->
    <!--<person id="p2.7" depart="7.00">-->
        <!--<walk edges="7to4 4to6"/>-->
    <!--</person>-->
    <!--<person id="p.8" depart="8.00">-->
        <!--<walk edges="5to3 3to1"/>-->
    <!--</person>-->
    <!--<person id="p1.8" depart="8.00">-->
        <!--<walk edges="2to3 3to4"/>-->
    <!--</person>-->
    <!--<person id="p2.8" depart="8.00">-->
        <!--<walk edges="7to4 4to6"/>-->
    <!--</person>-->
    <!--<person id="p.9" depart="9.00">-->
        <!--<walk edges="5to3 3to1"/>-->
    <!--</person>-->
    <!--<person id="p1.9" depart="9.00">-->
        <!--<walk edges="2to3 3to4"/>-->
    <!--</person>-->
    <!--<person id="p2.9" depart="9.00">-->
        <!--<walk edges="7to4 4to6"/>-->
    <!--</person>-->
    <!--<person id="p.10" depart="10.00">-->
        <!--<walk edges="5to3 3to1"/>-->
    <!--</person>-->
    <!--<person id="p1.10" depart="10.00">-->
        <!--<walk edges="2to3 3to4"/>-->
    <!--</person>-->
    <!--<person id="p2.10" depart="10.00">-->
        <!--<walk edges="7to4 4to6"/>-->
    <!--</person>-->
    <!--<person id="p.11" depart="11.00">-->
        <!--<walk edges="5to3 3to1"/>-->
    <!--</person>-->
    <!--<person id="p1.11" depart="11.00">-->
        <!--<walk edges="2to3 3to4"/>-->
    <!--</person>-->
    <!--<person id="p2.11" depart="11.00">-->
        <!--<walk edges="7to4 4to6"/>-->
    <!--</person>-->
    <!--<person id="p.12" depart="12.00">-->
        <!--<walk edges="5to3 3to1"/>-->
    <!--</person>-->
    <!--<person id="p1.12" depart="12.00">-->
        <!--<walk edges="2to3 3to4"/>-->
    <!--</person>-->
    <!--<person id="p2.12" depart="12.00">-->
        <!--<walk edges="7to4 4to6"/>-->
    <!--</person>-->
    <!--<person id="p.13" depart="13.00">-->
        <!--<walk edges="5to3 3to1"/>-->
    <!--</person>-->
    <!--<person id="p1.13" depart="13.00">-->
        <!--<walk edges="2to3 3to4"/>-->
    <!--</person>-->
    <!--<person id="p2.13" depart="13.00">-->
        <!--<walk edges="7to4 4to6"/>-->
    <!--</person>-->
    <!--<person id="p.14" depart="14.00">-->
        <!--<walk edges="5to3 3to1"/>-->
    <!--</person>-->
    <!--<person id="p1.14" depart="14.00">-->
        <!--<walk edges="2to3 3to4"/>-->
    <!--</person>-->
    <!--<person id="p2.14" depart="14.00">-->
        <!--<walk edges="7to4 4to6"/>-->
    <!--</person>-->
    <!--<person id="p.15" depart="15.00">-->
        <!--<walk edges="5to3 3to1"/>-->
    <!--</person>-->
    <!--<person id="p1.15" depart="15.00">-->
        <!--<walk edges="2to3 3to4"/>-->
    <!--</person>-->
    <!--<person id="p2.15" depart="15.00">-->
        <!--<walk edges="7to4 4to6"/>-->
    <!--</person>-->
    <!--<person id="p.16" depart="16.00">-->
        <!--<walk edges="5to3 3to1"/>-->
    <!--</person>-->
    <!--<person id="p1.16" depart="16.00">-->
        <!--<walk edges="2to3 3to4"/>-->
    <!--</person>-->
    <!--<person id="p2.16" depart="16.00">-->
        <!--<walk edges="7to4 4to6"/>-->
    <!--</person>-->
    <!--<person id="p.17" depart="17.00">-->
        <!--<walk edges="5to3 3to1"/>-->
    <!--</person>-->
    <!--<person id="p1.17" depart="17.00">-->
        <!--<walk edges="2to3 3to4"/>-->
    <!--</person>-->
    <!--<person id="p2.17" depart="17.00">-->
        <!--<walk edges="7to4 4to6"/>-->
    <!--</person>-->
    <!--<person id="p.18" depart="18.00">-->
        <!--<walk edges="5to3 3to1"/>-->
    <!--</person>-->
    <!--<person id="p1.18" depart="18.00">-->
        <!--<walk edges="2to3 3to4"/>-->
    <!--</person>-->
    <!--<person id="p2.18" depart="18.00">-->
        <!--<walk edges="7to4 4to6"/>-->
    <!--</person>-->
    <!--<person id="p.19" depart="19.00">-->
        <!--<walk edges="5to3 3to1"/>-->
    <!--</person>-->
    <!--<person id="p1.19" depart="19.00">-->
        <!--<walk edges="2to3 3to4"/>-->
    <!--</person>-->
    <!--<person id="p2.19" depart="19.00">-->
        <!--<walk edges="7to4 4to6"/>-->
    <!--</person>-->
    <person id="p.20" depart="20.00">
        <walk edges="5to3 3to1"/>
    </person>
    <person id="p1.20" depart="20.00">
        <walk edges="2to3 3to4"/>
    </person>
    <person id="p2.20" depart="20.00">
        <walk edges="7to4 4to6"/>
    </person>
    <person id="p.21" depart="21.00">
        <walk edges="5to3 3to1"/>
    </person>
    <person id="p1.21" depart="21.00">
        <walk edges="2to3 3to4"/>
    </person>
    <person id="p2.21" depart="21.00">
        <walk edges="7to4 4to6"/>
    </person>
    <person id="p.22" depart="22.00">
        <walk edges="5to3 3to1"/>
    </person>
    <person id="p1.22" depart="22.00">
        <walk edges="2to3 3to4"/>
    </person>
    <person id="p2.22" depart="22.00">
        <walk edges="7to4 4to6"/>
    </person>
    <person id="p.23" depart="23.00">
        <walk edges="5to3 3to1"/>
    </person>
    <person id="p1.23" depart="23.00">
        <walk edges="2to3 3to4"/>
    </person>
    <person id="p2.23" depart="23.00">
        <walk edges="7to4 4to6"/>
    </person>
    <person id="p.24" depart="24.00">
        <walk edges="5to3 3to1"/>
    </person>
    <person id="p1.24" depart="24.00">
        <walk edges="2to3 3to4"/>
    </person>
    <person id="p2.24" depart="24.00">
        <walk edges="7to4 4to6"/>
    </person>
    <person id="p.25" depart="25.00">
        <walk edges="5to3 3to1"/>
    </person>
    <person id="p1.25" depart="25.00">
        <walk edges="2to3 3to4"/>
    </person>
    <person id="p2.25" depart="25.00">
        <walk edges="7to4 4to6"/>
    </person>
    <person id="p.26" depart="26.00">
        <walk edges="5to3 3to1"/>
    </person>
    <person id="p1.26" depart="26.00">
        <walk edges="2to3 3to4"/>
    </person>
    <person id="p2.26" depart="26.00">
        <walk edges="7to4 4to6"/>
    </person>
    <person id="p.27" depart="27.00">
        <walk edges="5to3 3to1"/>
    </person>
    <person id="p1.27" depart="27.00">
        <walk edges="2to3 3to4"/>
    </person>
    <person id="p2.27" depart="27.00">
        <walk edges="7to4 4to6"/>
    </person>
    <person id="p.28" depart="28.00">
        <walk edges="5to3 3to1"/>
    </person>
    <person id="p1.28" depart="28.00">
        <walk edges="2to3 3to4"/>
    </person>
    <person id="p2.28" depart="28.00">
        <walk edges="7to4 4to6"/>
    </person>
    <person id="p.29" depart="29.00">
        <walk edges="5to3 3to1"/>
    </person>
    <person id="p1.29" depart="29.00">
        <walk edges="2to3 3to4"/>
    </person>
    <person id="p2.29" depart="29.00">
        <walk edges="7to4 4to6"/>
    </person>
    <person id="p.30" depart="30.00">
        <walk edges="5to3 3to1"/>
    </person>
    <person id="p1.30" depart="30.00">
        <walk edges="2to3 3to4"/>
    </person>
    <person id="p2.30" depart="30.00">
        <walk edges="7to4 4to6"/>
    </person>
    <person id="p.31" depart="31.00">
        <walk edges="5to3 3to1"/>
    </person>
    <person id="p1.31" depart="31.00">
        <walk edges="2to3 3to4"/>
    </person>
    <person id="p2.31" depart="31.00">
        <walk edges="7to4 4to6"/>
    </person>
    <person id="p.32" depart="32.00">
        <walk edges="5to3 3to1"/>
    </person>
    <person id="p1.32" depart="32.00">
        <walk edges="2to3 3to4"/>
    </person>
    <person id="p2.32" depart="32.00">
        <walk edges="7to4 4to6"/>
    </person>
    <person id="p.33" depart="33.00">
        <walk edges="5to3 3to1"/>
    </person>
    <person id="p1.33" depart="33.00">
        <walk edges="2to3 3to4"/>
    </person>
    <person id="p2.33" depart="33.00">
        <walk edges="7to4 4to6"/>
    </person>
    <person id="p.34" depart="34.00">
        <walk edges="5to3 3to1"/>
    </person>
    <person id="p1.34" depart="34.00">
        <walk edges="2to3 3to4"/>
    </person>
    <person id="p2.34" depart="34.00">
        <walk edges="7to4 4to6"/>
    </person>
    <person id="p.35" depart="35.00">
        <walk edges="5to3 3to1"/>
    </person>
    <person id="p1.35" depart="35.00">
        <walk edges="2to3 3to4"/>
    </person>
    <person id="p2.35" depart="35.00">
        <walk edges="7to4 4to6"/>
    </person>
    <person id="p.36" depart="36.00">
        <walk edges="5to3 3to1"/>
    </person>
    <person id="p1.36" depart="36.00">
        <walk edges="2to3 3to4"/>
    </person>
    <person id="p2.36" depart="36.00">
        <walk edges="7to4 4to6"/>
    </person>
    <person id="p.37" depart="37.00">
        <walk edges="5to3 3to1"/>
    </person>
    <person id="p1.37" depart="37.00">
        <walk edges="2to3 3to4"/>
    </person>
    <person id="p2.37" depart="37.00">
        <walk edges="7to4 4to6"/>
    </person>
    <person id="p.38" depart="38.00">
        <walk edges="5to3 3to1"/>
    </person>
    <person id="p1.38" depart="38.00">
        <walk edges="2to3 3to4"/>
    </person>
    <person id="p2.38" depart="38.00">
        <walk edges="7to4 4to6"/>
    </person>
    <person id="p.39" depart="39.00">
        <walk edges="5to3 3to1"/>
    </person>
    <person id="p1.39" depart="39.00">
        <walk edges="2to3 3to4"/>
    </person>
    <person id="p2.39" depart="39.00">
        <walk edges="7to4 4to6"/>
    </person>
    <person id="p.40" depart="40.00">
        <walk edges="5to3 3to1"/>
    </person>
    <person id="p1.40" depart="40.00">
        <walk edges="2to3 3to4"/>
    </person>
    <person id="p2.40" depart="40.00">
        <walk edges="7to4 4to6"/>
    </person>
    <person id="p.41" depart="41.00">
        <walk edges="5to3 3to1"/>
    </person>
    <person id="p1.41" depart="41.00">
        <walk edges="2to3 3to4"/>
    </person>
    <person id="p2.41" depart="41.00">
        <walk edges="7to4 4to6"/>
    </person>
    <person id="p.42" depart="42.00">
        <walk edges="5to3 3to1"/>
    </person>
    <person id="p1.42" depart="42.00">
        <walk edges="2to3 3to4"/>
    </person>
    <person id="p2.42" depart="42.00">
        <walk edges="7to4 4to6"/>
    </person>
    <person id="p.43" depart="43.00">
        <walk edges="5to3 3to1"/>
    </person>
    <person id="p1.43" depart="43.00">
        <walk edges="2to3 3to4"/>
    </person>
    <person id="p2.43" depart="43.00">
        <walk edges="7to4 4to6"/>
    </person>
    <person id="p.44" depart="44.00">
        <walk edges="5to3 3to1"/>
    </person>
    <person id="p1.44" depart="44.00">
        <walk edges="2to3 3to4"/>
    </person>
    <person id="p2.44" depart="44.00">
        <walk edges="7to4 4to6"/>
    </person>
    <person id="p.45" depart="45.00">
        <walk edges="5to3 3to1"/>
    </person>
    <person id="p1.45" depart="45.00">
        <walk edges="2to3 3to4"/>
    </person>
    <person id="p2.45" depart="45.00">
        <walk edges="7to4 4to6"/>
    </person>
    <person id="p.46" depart="46.00">
        <walk edges="5to3 3to1"/>
    </person>
    <person id="p1.46" depart="46.00">
        <walk edges="2to3 3to4"/>
    </person>
    <person id="p2.46" depart="46.00">
        <walk edges="7to4 4to6"/>
    </person>
    <person id="p.47" depart="47.00">
        <walk edges="5to3 3to1"/>
    </person>
    <person id="p1.47" depart="47.00">
        <walk edges="2to3 3to4"/>
    </person>
    <person id="p2.47" depart="47.00">
        <walk edges="7to4 4to6"/>
    </person>
    <person id="p.48" depart="48.00">
        <walk edges="5to3 3to1"/>
    </person>
    <person id="p1.48" depart="48.00">
        <walk edges="2to3 3to4"/>
    </person>
    <person id="p2.48" depart="48.00">
        <walk edges="7to4 4to6"/>
    </person>
    <person id="p.49" depart="49.00">
        <walk edges="5to3 3to1"/>
    </person>
    <person id="p1.49" depart="49.00">
        <walk edges="2to3 3to4"/>
    </person>
    <person id="p2.49" depart="49.00">
        <walk edges="7to4 4to6"/>
    </person>
    <person id="p.50" depart="50.00">
        <walk edges="5to3 3to1"/>
    </person>
    <person id="p1.50" depart="50.00">
        <walk edges="2to3 3to4"/>
    </person>
    <person id="p2.50" depart="50.00">
        <walk edges="7to4 4to6"/>
    </person>
    <person id="p.51" depart="51.00">
        <walk edges="5to3 3to1"/>
    </person>
    <person id="p1.51" depart="51.00">
        <walk edges="2to3 3to4"/>
    </person>
    <person id="p2.51" depart="51.00">
        <walk edges="7to4 4to6"/>
    </person>
    <person id="p.52" depart="52.00">
        <walk edges="5to3 3to1"/>
    </person>
    <person id="p1.52" depart="52.00">
        <walk edges="2to3 3to4"/>
    </person>
    <person id="p2.52" depart="52.00">
        <walk edges="7to4 4to6"/>
    </person>
    <person id="p.53" depart="53.00">
        <walk edges="5to3 3to1"/>
    </person>
    <person id="p1.53" depart="53.00">
        <walk edges="2to3 3to4"/>
    </person>
    <person id="p2.53" depart="53.00">
        <walk edges="7to4 4to6"/>
    </person>
    <person id="p.54" depart="54.00">
        <walk edges="5to3 3to1"/>
    </person>
    <person id="p1.54" depart="54.00">
        <walk edges="2to3 3to4"/>
    </person>
    <person id="p2.54" depart="54.00">
        <walk edges="7to4 4to6"/>
    </person>




    <!--<person id="p.55" depart="55.00">-->
        <!--<walk edges="5to3 3to1"/>-->
    <!--</person>-->
    <!--<person id="p1.55" depart="55.00">-->
        <!--<walk edges="2to3 3to4"/>-->
    <!--</person>-->
    <!--<person id="p2.55" depart="55.00">-->
        <!--<walk edges="7to4 4to6"/>-->
    <!--</person>-->
    <!--<person id="p.56" depart="56.00">-->
        <!--<walk edges="5to3 3to1"/>-->
    <!--</person>-->
    <!--<person id="p1.56" depart="56.00">-->
        <!--<walk edges="2to3 3to4"/>-->
    <!--</person>-->
    <!--<person id="p2.56" depart="56.00">-->
        <!--<walk edges="7to4 4to6"/>-->
    <!--</person>-->
    <!--<person id="p.57" depart="57.00">-->
        <!--<walk edges="5to3 3to1"/>-->
    <!--</person>-->
    <!--<person id="p1.57" depart="57.00">-->
        <!--<walk edges="2to3 3to4"/>-->
    <!--</person>-->
    <!--<person id="p2.57" depart="57.00">-->
        <!--<walk edges="7to4 4to6"/>-->
    <!--</person>-->
    <!--<person id="p.58" depart="58.00">-->
        <!--<walk edges="5to3 3to1"/>-->
    <!--</person>-->
    <!--<person id="p1.58" depart="58.00">-->
        <!--<walk edges="2to3 3to4"/>-->
    <!--</person>-->
    <!--<person id="p2.58" depart="58.00">-->
        <!--<walk edges="7to4 4to6"/>-->
    <!--</person>-->
    <!--<person id="p.59" depart="59.00">-->
        <!--<walk edges="5to3 3to1"/>-->
    <!--</person>-->
    <!--<person id="p1.59" depart="59.00">-->
        <!--<walk edges="2to3 3to4"/>-->
    <!--</person>-->
    <!--<person id="p2.59" depart="59.00">-->
        <!--<walk edges="7to4 4to6"/>-->
    <!--</person>-->
    <!--<person id="p.60" depart="60.00">-->
        <!--<walk edges="5to3 3to1"/>-->
    <!--</person>-->
    <!--<person id="p1.60" depart="60.00">-->
        <!--<walk edges="2to3 3to4"/>-->
    <!--</person>-->
    <!--<person id="p2.60" depart="60.00">-->
        <!--<walk edges="7to4 4to6"/>-->
    <!--</person>-->
    <!--<person id="p.61" depart="61.00">-->
        <!--<walk edges="5to3 3to1"/>-->
    <!--</person>-->
    <!--<person id="p1.61" depart="61.00">-->
        <!--<walk edges="2to3 3to4"/>-->
    <!--</person>-->
    <!--<person id="p2.61" depart="61.00">-->
        <!--<walk edges="7to4 4to6"/>-->
    <!--</person>-->
    <!--<person id="p.62" depart="62.00">-->
        <!--<walk edges="5to3 3to1"/>-->
    <!--</person>-->
    <!--<person id="p1.62" depart="62.00">-->
        <!--<walk edges="2to3 3to4"/>-->
    <!--</person>-->
    <!--<person id="p2.62" depart="62.00">-->
        <!--<walk edges="7to4 4to6"/>-->
    <!--</person>-->
    <!--<person id="p.63" depart="63.00">-->
        <!--<walk edges="5to3 3to1"/>-->
    <!--</person>-->
    <!--<person id="p1.63" depart="63.00">-->
        <!--<walk edges="2to3 3to4"/>-->
    <!--</person>-->
    <!--<person id="p2.63" depart="63.00">-->
        <!--<walk edges="7to4 4to6"/>-->
    <!--</person>-->
    <!--<person id="p.64" depart="64.00">-->
        <!--<walk edges="5to3 3to1"/>-->
    <!--</person>-->
    <!--<person id="p1.64" depart="64.00">-->
        <!--<walk edges="2to3 3to4"/>-->
    <!--</person>-->
    <!--<person id="p2.64" depart="64.00">-->
        <!--<walk edges="7to4 4to6"/>-->
    <!--</person>-->
    <!--<person id="p.65" depart="65.00">-->
        <!--<walk edges="5to3 3to1"/>-->
    <!--</person>-->
    <!--<person id="p1.65" depart="65.00">-->
        <!--<walk edges="2to3 3to4"/>-->
    <!--</person>-->
    <!--<person id="p2.65" depart="65.00">-->
        <!--<walk edges="7to4 4to6"/>-->
    <!--</person>-->
    <!--<person id="p.66" depart="66.00">-->
        <!--<walk edges="5to3 3to1"/>-->
    <!--</person>-->
    <!--<person id="p1.66" depart="66.00">-->
        <!--<walk edges="2to3 3to4"/>-->
    <!--</person>-->
    <!--<person id="p2.66" depart="66.00">-->
        <!--<walk edges="7to4 4to6"/>-->
    <!--</person>-->
    <!--<person id="p.67" depart="67.00">-->
        <!--<walk edges="5to3 3to1"/>-->
    <!--</person>-->
    <!--<person id="p1.67" depart="67.00">-->
        <!--<walk edges="2to3 3to4"/>-->
    <!--</person>-->
    <!--<person id="p2.67" depart="67.00">-->
        <!--<walk edges="7to4 4to6"/>-->
    <!--</person>-->
    <!--<person id="p.68" depart="68.00">-->
        <!--<walk edges="5to3 3to1"/>-->
    <!--</person>-->
    <!--<person id="p1.68" depart="68.00">-->
        <!--<walk edges="2to3 3to4"/>-->
    <!--</person>-->
    <!--<person id="p2.68" depart="68.00">-->
        <!--<walk edges="7to4 4to6"/>-->
    <!--</person>-->
    <!--<person id="p.69" depart="69.00">-->
        <!--<walk edges="5to3 3to1"/>-->
    <!--</person>-->
    <!--<person id="p1.69" depart="69.00">-->
        <!--<walk edges="2to3 3to4"/>-->
    <!--</person>-->
    <!--<person id="p2.69" depart="69.00">-->
        <!--<walk edges="7to4 4to6"/>-->
    <!--</person>-->
    <!--<person id="p.70" depart="70.00">-->
        <!--<walk edges="5to3 3to1"/>-->
    <!--</person>-->
    <!--<person id="p1.70" depart="70.00">-->
        <!--<walk edges="2to3 3to4"/>-->
    <!--</person>-->
    <!--<person id="p2.70" depart="70.00">-->
        <!--<walk edges="7to4 4to6"/>-->
    <!--</person>-->
    <!--<person id="p.71" depart="71.00">-->
        <!--<walk edges="5to3 3to1"/>-->
    <!--</person>-->
    <!--<person id="p1.71" depart="71.00">-->
        <!--<walk edges="2to3 3to4"/>-->
    <!--</person>-->
    <!--<person id="p2.71" depart="71.00">-->
        <!--<walk edges="7to4 4to6"/>-->
    <!--</person>-->
    <!--<person id="p.72" depart="72.00">-->
        <!--<walk edges="5to3 3to1"/>-->
    <!--</person>-->
    <!--<person id="p1.72" depart="72.00">-->
        <!--<walk edges="2to3 3to4"/>-->
    <!--</person>-->
    <!--<person id="p2.72" depart="72.00">-->
        <!--<walk edges="7to4 4to6"/>-->
    <!--</person>-->
    <!--<person id="p.73" depart="73.00">-->
        <!--<walk edges="5to3 3to1"/>-->
    <!--</person>-->
    <!--<person id="p1.73" depart="73.00">-->
        <!--<walk edges="2to3 3to4"/>-->
    <!--</person>-->
    <!--<person id="p2.73" depart="73.00">-->
        <!--<walk edges="7to4 4to6"/>-->
    <!--</person>-->
    <!--<person id="p.74" depart="74.00">-->
        <!--<walk edges="5to3 3to1"/>-->
    <!--</person>-->
    <!--<person id="p1.74" depart="74.00">-->
        <!--<walk edges="2to3 3to4"/>-->
    <!--</person>-->
    <!--<person id="p2.74" depart="74.00">-->
        <!--<walk edges="7to4 4to6"/>-->
    <!--</person>-->
    <!--<person id="p.75" depart="75.00">-->
        <!--<walk edges="5to3 3to1"/>-->